60c
                    3D
 Schrodinger Suite 2022-3.
 49 51  0  0  1  0            999 V2000
   -6.6000   -6.5030   40.5530 C   0  0  0  0  0  0
   -7.3720   -5.6990   39.5000 C   0  0  0  0  0  0
   -7.2940   -4.3180   39.5160 C   0  0  0  0  0  0
   -7.9870   -3.5740   38.5800 C   0  0  0  0  0  0
   -7.0590   -1.6420   39.5250 C   0  0  0  0  0  0
   -8.7550   -4.2020   37.6340 C   0  0  0  0  0  0
   -9.1320   -3.5010   35.3860 C   0  0  0  0  0  0
   -8.8380   -5.6030   37.6010 C   0  0  0  0  0  0
   -9.2700   -7.6300   36.4230 C   0  0  0  0  0  0
   -8.1430   -6.3420   38.5490 C   0  0  0  0  0  0
   -6.3560   -8.0130   40.3740 C   0  0  0  0  0  0
   -5.7250   -9.7430   38.9530 C   0  0  0  0  0  0
   -5.2640  -10.2100   37.5620 C   0  0  0  0  0  0
   -5.2050  -11.5640   37.2740 C   0  0  0  0  0  0
   -4.7900  -11.9850   36.0190 C   0  0  0  0  0  0
   -4.4400  -11.0450   35.0450 C   0  0  0  0  0  0
   -3.9770  -11.4750   33.6560 C   0  0  0  0  0  0
   -4.5070   -9.6950   35.3270 C   0  0  0  0  0  0
   -4.9180   -9.2780   36.5850 C   0  0  0  0  0  0
   -5.8950  -10.6760   39.9730 C   0  0  0  0  0  0
   -6.3150  -10.2610   41.2310 C   0  0  0  0  0  0
   -6.5500   -8.8980   41.4300 C   0  0  0  0  0  0
   -6.9630   -8.4620   42.6510 F   0  0  0  0  0  0
   -5.9590   -8.4520   39.1870 N   0  0  0  0  0  0
   -6.1920   -5.9220   41.5100 O   0  0  0  0  0  0
   -7.9250   -2.1790   38.5650 O   0  0  0  0  0  0
   -9.4260   -3.3490   36.7470 O   0  0  0  0  0  0
   -9.6230   -6.2880   36.6530 O   0  0  0  0  0  0
   -4.7400  -13.3640   35.7560 O   0  0  0  0  0  0
   -6.6909   -3.8198   40.2606 H   0  0  0  0  0  0
   -7.0642   -0.5545   39.4519 H   0  0  0  0  0  0
   -7.3889   -1.9404   40.5201 H   0  0  0  0  0  0
   -6.0487   -2.0125   39.3515 H   0  0  0  0  0  0
   -9.7141   -2.7850   34.8058 H   0  0  0  0  0  0
   -8.0693   -3.3229   35.2212 H   0  0  0  0  0  0
   -9.3834   -4.5135   35.0703 H   0  0  0  0  0  0
   -9.9386   -8.0593   35.6769 H   0  0  0  0  0  0
   -8.2430   -7.6792   36.0611 H   0  0  0  0  0  0
   -9.3544   -8.1929   37.3526 H   0  0  0  0  0  0
   -8.2051   -7.4202   38.5431 H   0  0  0  0  0  0
   -5.4817  -12.2885   38.0256 H   0  0  0  0  0  0
   -3.7554  -10.5919   33.0567 H   0  0  0  0  0  0
   -3.0798  -12.0875   33.7450 H   0  0  0  0  0  0
   -4.7646  -12.0532   33.1727 H   0  0  0  0  0  0
   -4.2404   -8.9715   34.5708 H   0  0  0  0  0  0
   -4.9687   -8.2217   36.8043 H   0  0  0  0  0  0
   -5.7004  -11.7218   39.7862 H   0  0  0  0  0  0
   -6.4508  -10.9848   42.0210 H   0  0  0  0  0  0
   -4.4379  -13.5079   34.8562 H   0  0  0  0  0  0
  1  2  1  0  0  0
  1 11  1  0  0  0
  1 25  2  0  0  0
  2  3  2  0  0  0
  2 10  1  0  0  0
  3  4  1  0  0  0
  3 30  1  0  0  0
  4  6  2  0  0  0
  4 26  1  0  0  0
  5 26  1  0  0  0
  5 31  1  0  0  0
  5 32  1  0  0  0
  5 33  1  0  0  0
  6  8  1  0  0  0
  6 27  1  0  0  0
  7 27  1  0  0  0
  7 34  1  0  0  0
  7 35  1  0  0  0
  7 36  1  0  0  0
  8 10  2  0  0  0
  8 28  1  0  0  0
  9 28  1  0  0  0
  9 37  1  0  0  0
  9 38  1  0  0  0
  9 39  1  0  0  0
 10 40  1  0  0  0
 11 22  2  0  0  0
 11 24  1  0  0  0
 12 13  1  0  0  0
 12 20  1  0  0  0
 12 24  2  0  0  0
 13 14  2  0  0  0
 13 19  1  0  0  0
 14 15  1  0  0  0
 14 41  1  0  0  0
 15 16  2  0  0  0
 15 29  1  0  0  0
 16 17  1  0  0  0
 16 18  1  0  0  0
 17 42  1  0  0  0
 17 43  1  0  0  0
 17 44  1  0  0  0
 18 19  2  0  0  0
 18 45  1  0  0  0
 19 46  1  0  0  0
 20 21  2  0  0  0
 20 47  1  0  0  0
 21 22  1  0  0  0
 21 48  1  0  0  0
 22 23  1  0  0  0
 29 49  1  0  0  0
M  END
> <i_qp_#stars>
0

> <i_qp_#amine>
0

> <i_qp_#amidine>
0

> <i_qp_#acid>
0

> <i_qp_#amide>
0

> <i_qp_#rotor>
7

> <i_qp_#rtvFG>
0

> <i_qp_CNS>
0

> <r_qp_mol_MW>
397.402

> <r_qp_dipole>
7.41884

> <r_qp_SASA>
657.634

> <r_qp_FOSA>
322.144

> <r_qp_FISA>
87.734

> <r_qp_PISA>
210.11

> <r_qp_WPSA>
37.6461

> <r_qp_volume>
1187.67

> <r_qp_donorHB>
1

> <r_qp_accptHB>
6

> <r_qp_dip^2/V>
0.0463421

> <r_qp_ACxDN^.5/SA>
0.00912362

> <r_qp_glob>
0.82473

> <r_qp_QPpolrz>
38.8884

> <r_qp_QPlogPC16>
11.3327

> <r_qp_QPlogPoct>
17.9582

> <r_qp_QPlogPw>
9.17133

> <r_qp_QPlogPo/w>
4.00874

> <r_qp_QPlogS>
-5.07266

> <r_qp_CIQPlogS>
-5.97276

> <r_qp_QPlogHERG>
-5.37006

> <r_qp_QPPCaco>
1458.54

> <r_qp_QPlogBB>
-0.625918

> <r_qp_QPPMDCK>
1196.06

> <r_qp_QPlogKp>
-1.72421

> <r_qp_IP(eV)>
9.32957

> <r_qp_EA(eV)>
1.02524

> <i_qp_#metab>
5

> <r_qp_QPlogKhsa>
0.374562

> <i_qp_HumanOralAbsorption>
3

> <r_qp_PercentHumanOralAbsorption>
100

> <r_qp_SAfluorine>
37.6461

> <r_qp_SAamideO>
0

> <r_qp_PSA>
77.7839

> <i_qp_#NandO>
6

> <i_qp_RuleOfFive>
0

> <i_qp_RuleOfThree>
0

> <i_qp_#ringatoms>
18

> <i_qp_#in34>
0

> <i_qp_#in56>
18

> <i_qp_#noncon>
0

> <i_qp_#nonHatm>
29

> <r_qp_Jm>
0.0634395

> <stars>
0

> <logP>
4.00874

> <Caco>
1458.54

> <MDCK>
1196.06

> <HumanOralAbsorption>
3

> <PercentHumanOralAbsorption>
100.0

> <RuleOfFive>
0

> <base>
fda.sdf

$$$$
60c
                    3D
 Schrodinger Suite 2022-3.
 49 51  0  0  1  0            999 V2000
   -6.6000   -6.5030   40.5530 C   0  0  0  0  0  0
   -7.3720   -5.6990   39.5000 C   0  0  0  0  0  0
   -7.2940   -4.3180   39.5160 C   0  0  0  0  0  0
   -7.9870   -3.5740   38.5800 C   0  0  0  0  0  0
   -7.0590   -1.6420   39.5250 C   0  0  0  0  0  0
   -8.7550   -4.2020   37.6340 C   0  0  0  0  0  0
   -9.1320   -3.5010   35.3860 C   0  0  0  0  0  0
   -8.8380   -5.6030   37.6010 C   0  0  0  0  0  0
   -9.2700   -7.6300   36.4230 C   0  0  0  0  0  0
   -8.1430   -6.3420   38.5490 C   0  0  0  0  0  0
   -6.3560   -8.0130   40.3740 C   0  0  0  0  0  0
   -5.7250   -9.7430   38.9530 C   0  0  0  0  0  0
   -5.2640  -10.2100   37.5620 C   0  0  0  0  0  0
   -5.2050  -11.5640   37.2740 C   0  0  0  0  0  0
   -4.7900  -11.9850   36.0190 C   0  0  0  0  0  0
   -4.4400  -11.0450   35.0450 C   0  0  0  0  0  0
   -3.9770  -11.4750   33.6560 C   0  0  0  0  0  0
   -4.5070   -9.6950   35.3270 C   0  0  0  0  0  0
   -4.9180   -9.2780   36.5850 C   0  0  0  0  0  0
   -5.8950  -10.6760   39.9730 C   0  0  0  0  0  0
   -6.3150  -10.2610   41.2310 C   0  0  0  0  0  0
   -6.5500   -8.8980   41.4300 C   0  0  0  0  0  0
   -6.9630   -8.4620   42.6510 F   0  0  0  0  0  0
   -5.9590   -8.4520   39.1870 N   0  0  0  0  0  0
   -6.1920   -5.9220   41.5100 O   0  0  0  0  0  0
   -7.9250   -2.1790   38.5650 O   0  0  0  0  0  0
   -9.4260   -3.3490   36.7470 O   0  0  0  0  0  0
   -9.6230   -6.2880   36.6530 O   0  0  0  0  0  0
   -4.7400  -13.3640   35.7560 O   0  0  0  0  0  0
   -6.6909   -3.8198   40.2606 H   0  0  0  0  0  0
   -7.0642   -0.5545   39.4519 H   0  0  0  0  0  0
   -7.3889   -1.9404   40.5201 H   0  0  0  0  0  0
   -6.0487   -2.0125   39.3515 H   0  0  0  0  0  0
   -9.7141   -2.7850   34.8058 H   0  0  0  0  0  0
   -8.0693   -3.3229   35.2212 H   0  0  0  0  0  0
   -9.3834   -4.5135   35.0703 H   0  0  0  0  0  0
   -9.9386   -8.0593   35.6769 H   0  0  0  0  0  0
   -8.2430   -7.6792   36.0611 H   0  0  0  0  0  0
   -9.3544   -8.1929   37.3526 H   0  0  0  0  0  0
   -8.2051   -7.4202   38.5431 H   0  0  0  0  0  0
   -5.4817  -12.2885   38.0256 H   0  0  0  0  0  0
   -3.7554  -10.5919   33.0567 H   0  0  0  0  0  0
   -3.0798  -12.0875   33.7450 H   0  0  0  0  0  0
   -4.7646  -12.0532   33.1727 H   0  0  0  0  0  0
   -4.2404   -8.9715   34.5708 H   0  0  0  0  0  0
   -4.9687   -8.2217   36.8043 H   0  0  0  0  0  0
   -5.7004  -11.7218   39.7862 H   0  0  0  0  0  0
   -6.4508  -10.9848   42.0210 H   0  0  0  0  0  0
   -4.4379  -13.5079   34.8562 H   0  0  0  0  0  0
  1  2  1  0  0  0
  1 11  1  0  0  0
  1 25  2  0  0  0
  2  3  2  0  0  0
  2 10  1  0  0  0
  3  4  1  0  0  0
  3 30  1  0  0  0
  4  6  2  0  0  0
  4 26  1  0  0  0
  5 26  1  0  0  0
  5 31  1  0  0  0
  5 32  1  0  0  0
  5 33  1  0  0  0
  6  8  1  0  0  0
  6 27  1  0  0  0
  7 27  1  0  0  0
  7 34  1  0  0  0
  7 35  1  0  0  0
  7 36  1  0  0  0
  8 10  2  0  0  0
  8 28  1  0  0  0
  9 28  1  0  0  0
  9 37  1  0  0  0
  9 38  1  0  0  0
  9 39  1  0  0  0
 10 40  1  0  0  0
 11 22  2  0  0  0
 11 24  1  0  0  0
 12 13  1  0  0  0
 12 20  1  0  0  0
 12 24  2  0  0  0
 13 14  2  0  0  0
 13 19  1  0  0  0
 14 15  1  0  0  0
 14 41  1  0  0  0
 15 16  2  0  0  0
 15 29  1  0  0  0
 16 17  1  0  0  0
 16 18  1  0  0  0
 17 42  1  0  0  0
 17 43  1  0  0  0
 17 44  1  0  0  0
 18 19  2  0  0  0
 18 45  1  0  0  0
 19 46  1  0  0  0
 20 21  2  0  0  0
 20 47  1  0  0  0
 21 22  1  0  0  0
 21 48  1  0  0  0
 22 23  1  0  0  0
 29 49  1  0  0  0
M  END
> <EON_Query>
60c

> <EON_ET_pb>
1

> <EON_ET_coul>
1

> <EON_ET_combo>
2

> <EON_ShapeTanimoto>
1

> <EON_Rank>
1

> <i_qp_#stars>
0

> <i_qp_#amine>
0

> <i_qp_#amidine>
0

> <i_qp_#acid>
0

> <i_qp_#amide>
0

> <i_qp_#rotor>
7

> <i_qp_#rtvFG>
0

> <i_qp_CNS>
0

> <r_qp_mol_MW>
397.402

> <r_qp_dipole>
7.41884

> <r_qp_SASA>
657.634

> <r_qp_FOSA>
322.144

> <r_qp_FISA>
87.734

> <r_qp_PISA>
210.11

> <r_qp_WPSA>
37.6461

> <r_qp_volume>
1187.67

> <r_qp_donorHB>
1

> <r_qp_accptHB>
6

> <r_qp_dip^2/V>
0.0463421

> <r_qp_ACxDN^.5/SA>
0.00912362

> <r_qp_glob>
0.82473

> <r_qp_QPpolrz>
38.8884

> <r_qp_QPlogPC16>
11.3327

> <r_qp_QPlogPoct>
17.9582

> <r_qp_QPlogPw>
9.17133

> <r_qp_QPlogPo/w>
4.00874

> <r_qp_QPlogS>
-5.07266

> <r_qp_CIQPlogS>
-5.97276

> <r_qp_QPlogHERG>
-5.37006

> <r_qp_QPPCaco>
1458.54

> <r_qp_QPlogBB>
-0.625918

> <r_qp_QPPMDCK>
1196.06

> <r_qp_QPlogKp>
-1.72421

> <r_qp_IP(eV)>
9.32957

> <r_qp_EA(eV)>
1.02524

> <i_qp_#metab>
5

> <r_qp_QPlogKhsa>
0.374562

> <i_qp_HumanOralAbsorption>
3

> <r_qp_PercentHumanOralAbsorption>
100

> <r_qp_SAfluorine>
37.6461

> <r_qp_SAamideO>
0

> <r_qp_PSA>
77.7839

> <i_qp_#NandO>
6

> <i_qp_RuleOfFive>
0

> <i_qp_RuleOfThree>
0

> <i_qp_#ringatoms>
18

> <i_qp_#in34>
0

> <i_qp_#in56>
18

> <i_qp_#noncon>
0

> <i_qp_#nonHatm>
29

> <r_qp_Jm>
0.0634395

> <stars>
0

> <logP>
4.00874

> <Caco>
1458.54

> <MDCK>
1196.06

> <HumanOralAbsorption>
3

> <PercentHumanOralAbsorption>
100.0

> <RuleOfFive>
0

> <base>
fda.sdf

$$$$
S7668-Picropodophyllin (PPP).cdx_3
                    3D
 Schrodinger Suite 2022-3.
 52 56  0  0  1  0            999 V2000
   -5.2364   -8.3838   37.5296 C   0  0  0  0  0  0
   -6.0310  -10.9605   38.3429 C   0  0  0  0  0  0
   -8.1039   -6.7379   38.0084 C   0  0  0  0  0  0
   -6.8875   -4.9342   39.0588 C   0  0  0  0  0  0
   -5.9277   -8.5487   38.7479 C   0  0  0  0  0  0
   -6.3087   -9.8490   39.1603 C   0  0  0  0  0  0
   -7.0955   -6.3000   38.8667 C   0  0  0  0  0  0
   -4.9741   -9.4980   36.7605 C   0  0  0  0  0  0
   -5.3639  -10.7522   37.1551 C   0  0  0  0  0  0
   -8.9045   -5.8101   37.3421 C   0  0  0  0  0  0
   -7.6881   -4.0062   38.3926 C   0  0  0  0  0  0
   -8.6965   -4.4442   37.5342 C   0  0  0  0  0  0
   -5.9764   -6.8731   42.0488 C   0  0  0  0  0  0
   -5.3360   -9.0702   42.1041 C   0  0  0  0  0  0
   -4.3539  -10.9158   35.2498 C   0  0  0  0  0  0
   -6.2189   -7.3159   39.5967 C   0  0  1  0  0  0
   -7.0387  -10.0683   40.4564 C   0  0  1  0  0  0
   -6.8126   -7.5809   41.0041 C   0  0  1  0  0  0
   -6.7255   -9.0128   41.5065 C   0  0  2  0  0  0
  -10.0320   -7.6627   36.3663 C   0  0  0  0  0  0
   -6.4237   -2.3125   39.4826 C   0  0  0  0  0  0
   -9.0299   -3.0956   35.6040 C   0  0  0  0  0  0
   -6.0024   -5.6749   42.2861 O   0  0  0  0  0  0
   -4.3276   -9.5084   35.5632 O   0  0  0  0  0  0
   -5.0137  -11.7112   36.2558 O   0  0  0  0  0  0
   -5.1445   -7.7672   42.6682 O   0  0  0  0  0  0
   -8.4348  -10.0443   40.1612 O   0  0  0  0  0  0
   -9.8860   -6.2510   36.5065 O   0  0  0  0  0  0
   -7.4746   -2.6751   38.5892 O   0  0  0  0  0  0
   -9.4791   -3.5373   36.8830 O   0  0  0  0  0  0
   -4.9157   -7.4015   37.1960 H   0  0  0  0  0  0
   -6.3300  -11.9612   38.6390 H   0  0  0  0  0  0
   -8.2682   -7.8021   37.8571 H   0  0  0  0  0  0
   -6.1020   -4.5902   39.7274 H   0  0  0  0  0  0
   -5.2679   -9.8204   42.8975 H   0  0  0  0  0  0
   -4.5406   -9.2538   41.3750 H   0  0  0  0  0  0
   -4.8752  -11.0535   34.2956 H   0  0  0  0  0  0
   -3.3226  -11.2709   35.1420 H   0  0  0  0  0  0
   -5.2344   -6.8022   39.7275 H   0  0  0  0  0  0
   -6.7991  -11.0616   40.8589 H   0  0  0  0  0  0
   -7.8497   -7.2339   41.0969 H   0  0  0  0  0  0
   -7.4457   -9.1126   42.3328 H   0  0  0  0  0  0
  -10.8486   -7.8783   35.6729 H   0  0  0  0  0  0
  -10.2419   -8.1070   37.3426 H   0  0  0  0  0  0
   -9.1021   -8.0787   35.9714 H   0  0  0  0  0  0
   -6.3606   -1.2236   39.5491 H   0  0  0  0  0  0
   -5.4777   -2.7214   39.1190 H   0  0  0  0  0  0
   -6.6400   -2.7237   40.4715 H   0  0  0  0  0  0
   -9.7435   -2.3761   35.1949 H   0  0  0  0  0  0
   -8.9362   -3.9535   34.9335 H   0  0  0  0  0  0
   -8.0551   -2.6150   35.7161 H   0  0  0  0  0  0
   -8.8951  -10.1864   41.0021 H   0  0  0  0  0  0
  1  5  2  0  0  0
  1  8  1  0  0  0
  1 31  1  0  0  0
  2  6  2  0  0  0
  2  9  1  0  0  0
  2 32  1  0  0  0
  3  7  2  0  0  0
  3 10  1  0  0  0
  3 33  1  0  0  0
  4  7  1  0  0  0
  4 11  2  0  0  0
  4 34  1  0  0  0
  5  6  1  0  0  0
  5 16  1  0  0  0
  6 17  1  0  0  0
  7 16  1  0  0  0
  8  9  2  0  0  0
  8 24  1  0  0  0
  9 25  1  0  0  0
 10 12  2  0  0  0
 10 28  1  0  0  0
 11 12  1  0  0  0
 11 29  1  0  0  0
 12 30  1  0  0  0
 13 18  1  0  0  0
 13 23  2  0  0  0
 13 26  1  0  0  0
 14 19  1  0  0  0
 14 26  1  0  0  0
 14 35  1  0  0  0
 14 36  1  0  0  0
 15 24  1  0  0  0
 15 25  1  0  0  0
 15 37  1  0  0  0
 15 38  1  0  0  0
 16 18  1  0  0  0
 16 39  1  0  0  0
 17 19  1  0  0  0
 17 27  1  0  0  0
 17 40  1  0  0  0
 18 19  1  0  0  0
 18 41  1  0  0  0
 19 42  1  0  0  0
 20 28  1  0  0  0
 20 43  1  0  0  0
 20 44  1  0  0  0
 20 45  1  0  0  0
 21 29  1  0  0  0
 21 46  1  0  0  0
 21 47  1  0  0  0
 21 48  1  0  0  0
 22 30  1  0  0  0
 22 49  1  0  0  0
 22 50  1  0  0  0
 22 51  1  0  0  0
 27 52  1  0  0  0
M  END
> <EON_Query>
60c

> <EON_ET_pb>
0.289

> <EON_ET_coul>
0.401

> <EON_ET_combo>
0.984

> <EON_ShapeTanimoto>
0.695

> <ROCS_ShapeQuery>
60c

> <ROCS_TanimotoCombo>
1.054

> <ROCS_ShapeTanimoto>
0.753

> <ROCS_ColorTanimoto>
0.301

> <ROCS_RefTversky>
0.886

> <ROCS_RefColorTversky>
0.526

> <ROCS_RefTverskyCombo>
1.413

> <ROCS_FitTversky>
0.834

> <ROCS_FitColorTversky>
0.414

> <ROCS_FitTverskyCombo>
1.247

> <ROCS_ColorScore>
-5.344

> <ROCS_Overlap>
1168.04

> <ROCS_Rank>
6

> <EON_Rank>
5

> <i_qp_#stars>
0

> <i_qp_#amine>
0

> <i_qp_#amidine>
0

> <i_qp_#acid>
0

> <i_qp_#amide>
0

> <i_qp_#rotor>
4

> <i_qp_#rtvFG>
2

> <i_qp_CNS>
-1

> <r_qp_mol_MW>
414.411

> <r_qp_dipole>
6.87879

> <r_qp_SASA>
570.018

> <r_qp_FOSA>
411.087

> <r_qp_FISA>
70.0212

> <r_qp_PISA>
88.9098

> <r_qp_WPSA>
0

> <r_qp_volume>
1113.28

> <r_qp_donorHB>
1

> <r_qp_accptHB>
8.45

> <r_qp_dip^2/V>
0.0425029

> <r_qp_ACxDN^.5/SA>
0.0148241

> <r_qp_glob>
0.911338

> <r_qp_QPpolrz>
36.6802

> <r_qp_QPlogPC16>
10.1102

> <r_qp_QPlogPoct>
18.3585

> <r_qp_QPlogPw>
11.0773

> <r_qp_QPlogPo/w>
2.42019

> <r_qp_QPlogS>
-3.02364

> <r_qp_CIQPlogS>
-5.1785

> <r_qp_QPlogHERG>
-3.39064

> <r_qp_QPPCaco>
2147.28

> <r_qp_QPlogBB>
-0.239639

> <r_qp_QPPMDCK>
1130.01

> <r_qp_QPlogKp>
-2.11275

> <r_qp_IP(eV)>
9.03037

> <r_qp_EA(eV)>
0.270002

> <i_qp_#metab>
6

> <r_qp_QPlogKhsa>
-0.12204

> <i_qp_HumanOralAbsorption>
3

> <r_qp_PercentHumanOralAbsorption>
100

> <r_qp_SAfluorine>
0

> <r_qp_SAamideO>
0

> <r_qp_PSA>
103.874

> <i_qp_#NandO>
8

> <i_qp_RuleOfFive>
0

> <i_qp_RuleOfThree>
0

> <i_qp_#ringatoms>
22

> <i_qp_#in34>
0

> <i_qp_#in56>
22

> <i_qp_#noncon>
6

> <i_qp_#nonHatm>
30

> <r_qp_Jm>
3.02719

> <stars>
0

> <logP>
2.42019

> <Caco>
2147.28

> <MDCK>
1130.01

> <HumanOralAbsorption>
3

> <PercentHumanOralAbsorption>
100.0

> <RuleOfFive>
0

> <base>
fda.sdf

$$$$
S5667 Fruquintinib.cdx_103
                    3D
 Schrodinger Suite 2022-3.
 48 51  0  0  1  0            999 V2000
   -5.5954  -11.1052   39.4269 C   0  0  0  0  0  0
   -6.2568  -10.1430   40.2021 C   0  0  0  0  0  0
   -8.6087   -6.2945   38.5525 C   0  0  0  0  0  0
   -7.7077   -3.6688   38.4494 C   0  0  0  0  0  0
   -6.4728   -8.6483   38.2909 C   0  0  0  0  0  0
   -5.5974   -5.0255   41.0111 C   0  0  0  0  0  0
   -5.3694  -10.8355   38.0658 C   0  0  0  0  0  0
   -7.5731   -5.8634   39.3999 C   0  0  0  0  0  0
   -4.7595  -11.5205   36.9818 C   0  0  0  0  0  0
   -7.1088   -4.5388   39.3574 C   0  0  0  0  0  0
   -5.8127   -9.6237   37.5458 C   0  0  0  0  0  0
   -6.6868   -8.9373   39.6420 C   0  0  0  0  0  0
   -9.1893   -5.4040   37.6550 C   0  0  0  0  0  0
   -8.7379   -4.0898   37.6035 C   0  0  0  0  0  0
   -4.8697  -10.6926   35.8886 C   0  0  0  0  0  0
   -6.9507   -6.7027   40.3196 C   0  0  0  0  0  0
   -4.1402  -12.8140   36.9783 C   0  0  0  0  0  0
   -4.4471  -10.8106   34.4847 C   0  0  0  0  0  0
   -3.6256  -14.8826   35.6273 C   0  0  0  0  0  0
  -10.5936   -7.1921   36.9575 C   0  0  0  0  0  0
   -8.6963   -3.1079   35.4380 C   0  0  0  0  0  0
   -6.1192   -4.1158   40.1634 N   0  0  0  0  0  0
   -5.9577   -6.3125   41.1408 N   0  0  0  0  0  0
   -4.1830  -13.5581   35.7826 N   0  0  0  0  0  0
   -3.5963  -13.2787   38.0085 O   0  0  0  0  0  0
   -5.5073   -9.5396   36.2203 O   0  0  0  0  0  0
   -7.3352   -8.0133   40.4363 O   0  0  0  0  0  0
  -10.1925   -5.8280   36.8385 O   0  0  0  0  0  0
   -9.2908   -3.2013   36.7308 O   0  0  0  0  0  0
   -5.2666  -12.0371   39.8770 H   0  0  0  0  0  0
   -6.4357  -10.3458   41.2556 H   0  0  0  0  0  0
   -8.9672   -7.3210   38.5867 H   0  0  0  0  0  0
   -7.3674   -2.6359   38.3951 H   0  0  0  0  0  0
   -6.8016   -7.7173   37.8442 H   0  0  0  0  0  0
   -4.8013   -4.6782   41.6584 H   0  0  0  0  0  0
   -5.2346  -11.2743   33.8650 H   0  0  0  0  0  0
   -4.2074   -9.8295   34.0355 H   0  0  0  0  0  0
   -3.5339  -11.4233   34.3723 H   0  0  0  0  0  0
   -4.3764  -15.6374   35.8745 H   0  0  0  0  0  0
   -2.7657  -15.0108   36.2903 H   0  0  0  0  0  0
   -3.2985  -15.0363   34.5953 H   0  0  0  0  0  0
  -11.4007   -7.3983   36.2502 H   0  0  0  0  0  0
  -10.9311   -7.3857   37.9786 H   0  0  0  0  0  0
   -9.7398   -7.8347   36.7298 H   0  0  0  0  0  0
   -9.2321   -2.3645   34.8425 H   0  0  0  0  0  0
   -8.7371   -4.0827   34.9458 H   0  0  0  0  0  0
   -7.6536   -2.8005   35.5475 H   0  0  0  0  0  0
   -4.6875  -13.1738   34.9903 H   0  0  0  0  0  0
  1  2  2  0  0  0
  1  7  1  0  0  0
  1 30  1  0  0  0
  2 12  1  0  0  0
  2 31  1  0  0  0
  3  8  2  0  0  0
  3 13  1  0  0  0
  3 32  1  0  0  0
  4 10  2  0  0  0
  4 14  1  0  0  0
  4 33  1  0  0  0
  5 11  1  0  0  0
  5 12  2  0  0  0
  5 34  1  0  0  0
  6 22  2  0  0  0
  6 23  1  0  0  0
  6 35  1  0  0  0
  7  9  1  0  0  0
  7 11  2  0  0  0
  8 10  1  0  0  0
  8 16  1  0  0  0
  9 15  2  0  0  0
  9 17  1  0  0  0
 10 22  1  0  0  0
 11 26  1  0  0  0
 12 27  1  0  0  0
 13 14  2  0  0  0
 13 28  1  0  0  0
 14 29  1  0  0  0
 15 18  1  0  0  0
 15 26  1  0  0  0
 16 23  2  0  0  0
 16 27  1  0  0  0
 17 24  1  0  0  0
 17 25  2  0  0  0
 18 36  1  0  0  0
 18 37  1  0  0  0
 18 38  1  0  0  0
 19 24  1  0  0  0
 19 39  1  0  0  0
 19 40  1  0  0  0
 19 41  1  0  0  0
 20 28  1  0  0  0
 20 42  1  0  0  0
 20 43  1  0  0  0
 20 44  1  0  0  0
 21 29  1  0  0  0
 21 45  1  0  0  0
 21 46  1  0  0  0
 21 47  1  0  0  0
 24 48  1  0  0  0
M  END
> <EON_Query>
60c

> <EON_ET_pb>
0.332

> <EON_ET_coul>
0.303

> <EON_ET_combo>
0.976

> <EON_ShapeTanimoto>
0.645

> <ROCS_ShapeQuery>
60c

> <ROCS_TanimotoCombo>
0.973

> <ROCS_ShapeTanimoto>
0.706

> <ROCS_ColorTanimoto>
0.267

> <ROCS_RefTversky>
0.842

> <ROCS_RefColorTversky>
0.459

> <ROCS_RefTverskyCombo>
1.302

> <ROCS_FitTversky>
0.814

> <ROCS_FitColorTversky>
0.389

> <ROCS_FitTverskyCombo>
1.202

> <ROCS_ColorScore>
-4.642

> <ROCS_Overlap>
1108.12

> <ROCS_Rank>
19

> <EON_Rank>
7

> <i_qp_#stars>
0

> <i_qp_#amine>
0

> <i_qp_#amidine>
0

> <i_qp_#acid>
0

> <i_qp_#amide>
0

> <i_qp_#rotor>
5

> <i_qp_#rtvFG>
0

> <i_qp_CNS>
0

> <r_qp_mol_MW>
393.398

> <r_qp_dipole>
8.76955

> <r_qp_SASA>
645.742

> <r_qp_FOSA>
348.069

> <r_qp_FISA>
88.6287

> <r_qp_PISA>
209.044

> <r_qp_WPSA>
0

> <r_qp_volume>
1159.64

> <r_qp_donorHB>
1

> <r_qp_accptHB>
7

> <r_qp_dip^2/V>
0.0663182

> <r_qp_ACxDN^.5/SA>
0.0108402

> <r_qp_glob>
0.826648

> <r_qp_QPpolrz>
39.0405

> <r_qp_QPlogPC16>
11.312

> <r_qp_QPlogPoct>
18.7065

> <r_qp_QPlogPw>
10.5545

> <r_qp_QPlogPo/w>
3.26392

> <r_qp_QPlogS>
-4.65679

> <r_qp_CIQPlogS>
-5.55

> <r_qp_QPlogHERG>
-5.33394

> <r_qp_QPPCaco>
1430.32

> <r_qp_QPlogBB>
-0.602517

> <r_qp_QPPMDCK>
728.376

> <r_qp_QPlogKp>
-1.93648

> <r_qp_IP(eV)>
9.09192

> <r_qp_EA(eV)>
1.44154

> <i_qp_#metab>
5

> <r_qp_QPlogKhsa>
0.18508

> <i_qp_HumanOralAbsorption>
3

> <r_qp_PercentHumanOralAbsorption>
100

> <r_qp_SAfluorine>
0

> <r_qp_SAamideO>
0

> <r_qp_PSA>
94.5784

> <i_qp_#NandO>
8

> <i_qp_RuleOfFive>
0

> <i_qp_RuleOfThree>
0

> <i_qp_#ringatoms>
19

> <i_qp_#in34>
0

> <i_qp_#in56>
19

> <i_qp_#noncon>
0

> <i_qp_#nonHatm>
29

> <r_qp_Jm>
0.100359

> <stars>
0

> <logP>
3.26392

> <Caco>
1430.32

> <MDCK>
728.376

> <HumanOralAbsorption>
3

> <PercentHumanOralAbsorption>
100.0

> <RuleOfFive>
0

> <base>
fda.sdf

$$$$
BindingDB_50035218_mol_1_1
                    3D
 Schrodinger Suite 2022-3.
 52 56  0  0  1  0            999 V2000
   -4.9812   -8.4391   37.4634 C   0  0  0  0  0  0
   -6.2058  -10.8832   38.1764 C   0  0  0  0  0  0
   -7.9127   -6.7513   38.0402 C   0  0  0  0  0  0
   -6.6848   -4.9064   39.0021 C   0  0  0  0  0  0
   -5.7673   -8.5140   38.6304 C   0  0  0  0  0  0
   -6.3985   -9.7480   38.9866 C   0  0  0  0  0  0
   -6.8616   -6.2788   38.8259 C   0  0  0  0  0  0
   -4.8365   -9.5739   36.6947 C   0  0  0  0  0  0
   -5.4303  -10.7617   37.0419 C   0  0  0  0  0  0
   -8.7872   -5.8516   37.4306 C   0  0  0  0  0  0
   -7.5593   -4.0066   38.3926 C   0  0  0  0  0  0
   -8.6104   -4.4792   37.6068 C   0  0  0  0  0  0
   -6.8474   -6.5803   41.8670 C   0  0  0  0  0  0
   -8.0461   -8.5021   42.2849 C   0  0  0  0  0  0
   -4.3224  -11.0582   35.2073 C   0  0  0  0  0  0
   -5.9219   -7.2456   39.4814 C   0  0  1  0  0  0
   -7.2222   -9.8930   40.2601 C   0  0  1  0  0  0
   -6.3803   -7.6308   40.8929 C   0  0  2  0  0  0
   -7.5905   -8.5383   40.8454 C   0  0  2  0  0  0
   -9.9195   -7.7423   36.5370 C   0  0  0  0  0  0
   -6.2775   -2.2697   39.3907 C   0  0  0  0  0  0
   -9.1204   -3.1476   35.7036 C   0  0  0  0  0  0
   -6.4196   -5.4427   41.9711 O   0  0  0  0  0  0
   -4.1145   -9.6719   35.5453 O   0  0  0  0  0  0
   -5.1544  -11.7571   36.1553 O   0  0  0  0  0  0
   -7.8165   -7.1341   42.6731 O   0  0  0  0  0  0
   -8.4216  -10.6139   39.9894 O   0  0  0  0  0  0
   -9.8097   -6.3262   36.6657 O   0  0  0  0  0  0
   -7.3757   -2.6687   38.5729 O   0  0  0  0  0  0
   -9.4651   -3.5998   37.0110 O   0  0  0  0  0  0
   -4.4964   -7.5120   37.1740 H   0  0  0  0  0  0
   -6.6513  -11.8390   38.4344 H   0  0  0  0  0  0
   -8.0527   -7.8207   37.9014 H   0  0  0  0  0  0
   -5.8662   -4.5354   39.6141 H   0  0  0  0  0  0
   -9.1100   -8.7334   42.3883 H   0  0  0  0  0  0
   -7.4670   -9.1560   42.9454 H   0  0  0  0  0  0
   -4.7943  -11.1118   34.2196 H   0  0  0  0  0  0
   -3.3481  -11.5579   35.1603 H   0  0  0  0  0  0
   -4.9478   -6.7472   39.5617 H   0  0  0  0  0  0
   -6.6291  -10.4757   40.9761 H   0  0  0  0  0  0
   -5.5488   -8.1499   41.3955 H   0  0  0  0  0  0
   -8.3886   -8.0808   40.2411 H   0  0  0  0  0  0
  -10.7750   -7.9861   35.9023 H   0  0  0  0  0  0
  -10.0465   -8.1902   37.5258 H   0  0  0  0  0  0
   -9.0065   -8.1295   36.0784 H   0  0  0  0  0  0
   -6.2451   -1.1792   39.4518 H   0  0  0  0  0  0
   -5.3464   -2.6491   38.9622 H   0  0  0  0  0  0
   -6.4111   -2.6848   40.3923 H   0  0  0  0  0  0
   -9.8836   -2.4526   35.3446 H   0  0  0  0  0  0
   -9.0460   -4.0039   35.0287 H   0  0  0  0  0  0
   -8.1562   -2.6357   35.7473 H   0  0  0  0  0  0
   -8.9077  -10.1015   39.3250 H   0  0  0  0  0  0
  1  5  2  0  0  0
  1  8  1  0  0  0
  1 31  1  0  0  0
  2  6  2  0  0  0
  2  9  1  0  0  0
  2 32  1  0  0  0
  3  7  2  0  0  0
  3 10  1  0  0  0
  3 33  1  0  0  0
  4  7  1  0  0  0
  4 11  2  0  0  0
  4 34  1  0  0  0
  5  6  1  0  0  0
  5 16  1  0  0  0
  6 17  1  0  0  0
  7 16  1  0  0  0
  8  9  2  0  0  0
  8 24  1  0  0  0
  9 25  1  0  0  0
 10 12  2  0  0  0
 10 28  1  0  0  0
 11 12  1  0  0  0
 11 29  1  0  0  0
 12 30  1  0  0  0
 13 18  1  0  0  0
 13 23  2  0  0  0
 13 26  1  0  0  0
 14 19  1  0  0  0
 14 26  1  0  0  0
 14 35  1  0  0  0
 14 36  1  0  0  0
 15 24  1  0  0  0
 15 25  1  0  0  0
 15 37  1  0  0  0
 15 38  1  0  0  0
 16 18  1  0  0  0
 16 39  1  0  0  0
 17 19  1  0  0  0
 17 27  1  0  0  0
 17 40  1  0  0  0
 18 19  1  0  0  0
 18 41  1  0  0  0
 19 42  1  0  0  0
 20 28  1  0  0  0
 20 43  1  0  0  0
 20 44  1  0  0  0
 20 45  1  0  0  0
 21 29  1  0  0  0
 21 46  1  0  0  0
 21 47  1  0  0  0
 21 48  1  0  0  0
 22 30  1  0  0  0
 22 49  1  0  0  0
 22 50  1  0  0  0
 22 51  1  0  0  0
 27 52  1  0  0  0
M  END
> <EON_Query>
60c

> <EON_ET_pb>
0.319

> <EON_ET_coul>
0.39

> <EON_ET_combo>
0.972

> <EON_ShapeTanimoto>
0.654

> <ROCS_ShapeQuery>
60c

> <ROCS_TanimotoCombo>
0.999

> <ROCS_ShapeTanimoto>
0.71

> <ROCS_ColorTanimoto>
0.289

> <ROCS_RefTversky>
0.857

> <ROCS_RefColorTversky>
0.509

> <ROCS_RefTverskyCombo>
1.366

> <ROCS_FitTversky>
0.805

> <ROCS_FitColorTversky>
0.401

> <ROCS_FitTverskyCombo>
1.205

> <ROCS_ColorScore>
-5.168

> <ROCS_Overlap>
1130.03

> <ROCS_Rank>
15

> <EON_Rank>
9

> <i_qp_#stars>
0

> <i_qp_#amine>
0

> <i_qp_#amidine>
0

> <i_qp_#acid>
0

> <i_qp_#amide>
0

> <i_qp_#rotor>
4

> <i_qp_#rtvFG>
2

> <i_qp_CNS>
-1

> <r_qp_mol_MW>
414.411

> <r_qp_dipole>
5.53647

> <r_qp_SASA>
546.606

> <r_qp_FOSA>
385.087

> <r_qp_FISA>
70.7299

> <r_qp_PISA>
90.789

> <r_qp_WPSA>
0

> <r_qp_volume>
1095.32

> <r_qp_donorHB>
1

> <r_qp_accptHB>
8.45

> <r_qp_dip^2/V>
0.027985

> <r_qp_ACxDN^.5/SA>
0.015459

> <r_qp_glob>
0.940123

> <r_qp_QPpolrz>
35.9794

> <r_qp_QPlogPC16>
10.1114

> <r_qp_QPlogPoct>
17.9982

> <r_qp_QPlogPw>
11.0386

> <r_qp_QPlogPo/w>
2.32847

> <r_qp_QPlogS>
-2.64345

> <r_qp_CIQPlogS>
-5.1785

> <r_qp_QPlogHERG>
-2.93385

> <r_qp_QPPCaco>
2114.31

> <r_qp_QPlogBB>
-0.211093

> <r_qp_QPPMDCK>
1111.27

> <r_qp_QPlogKp>
-2.11919

> <r_qp_IP(eV)>
9.16154

> <r_qp_EA(eV)>
0.377049

> <i_qp_#metab>
6

> <r_qp_QPlogKhsa>
-0.146633

> <i_qp_HumanOralAbsorption>
3

> <r_qp_PercentHumanOralAbsorption>
100

> <r_qp_SAfluorine>
0

> <r_qp_SAamideO>
0

> <r_qp_PSA>
102.092

> <i_qp_#NandO>
8

> <i_qp_RuleOfFive>
0

> <i_qp_RuleOfThree>
0

> <i_qp_#ringatoms>
22

> <i_qp_#in34>
0

> <i_qp_#in56>
22

> <i_qp_#noncon>
6

> <i_qp_#nonHatm>
30

> <r_qp_Jm>
7.15793

> <stars>
0

> <logP>
2.32847

> <Caco>
2114.31

> <MDCK>
1111.27

> <HumanOralAbsorption>
3

> <PercentHumanOralAbsorption>
100.0

> <RuleOfFive>
0

> <base>
fda.sdf

$$$$
S9227 Sinensetin.cdx_18
                    3D
 Schrodinger Suite 2022-3.
 47 49  0  0  1  0            999 V2000
   -6.1941  -10.6803   38.1620 C   0  0  0  0  0  0
   -5.8196  -11.8836   37.5641 C   0  0  0  0  0  0
   -5.0481   -9.4587   36.4209 C   0  0  0  0  0  0
   -8.1410   -5.3553   37.0477 C   0  0  0  0  0  0
   -5.8083   -9.4678   37.5904 C   0  0  0  0  0  0
   -7.0702   -5.7214   39.1813 C   0  0  0  0  0  0
   -7.3777   -6.1596   37.8943 C   0  0  0  0  0  0
   -5.0594  -11.8744   36.3946 C   0  0  0  0  0  0
   -4.6736  -10.6619   35.8231 C   0  0  0  0  0  0
   -8.5946   -4.1136   37.4936 C   0  0  0  0  0  0
   -7.5221   -4.4788   39.6313 C   0  0  0  0  0  0
   -8.2858   -3.6765   38.7825 C   0  0  0  0  0  0
   -5.8415   -7.8818   39.4755 C   0  0  0  0  0  0
   -6.2072   -8.1941   38.2221 C   0  0  0  0  0  0
   -6.2627   -6.5891   40.0522 C   0  0  0  0  0  0
   -5.5943  -13.6064   34.8552 C   0  0  0  0  0  0
   -4.6415  -10.6191   33.4454 C   0  0  0  0  0  0
   -9.6102   -3.8557   35.3587 C   0  0  0  0  0  0
   -8.1681   -4.3433   41.9162 C   0  0  0  0  0  0
   -7.8848   -1.3403   38.9739 C   0  0  0  0  0  0
   -5.9524   -6.2665   41.1906 O   0  0  0  0  0  0
   -6.9603   -7.3695   37.4003 O   0  0  0  0  0  0
   -4.7002  -13.0564   35.8208 O   0  0  0  0  0  0
   -3.9303  -10.6411   34.6816 O   0  0  0  0  0  0
   -9.3393   -3.3359   36.6588 O   0  0  0  0  0  0
   -7.2409   -4.0175   40.8830 O   0  0  0  0  0  0
   -8.7333   -2.4608   39.2101 O   0  0  0  0  0  0
   -6.7876  -10.7033   39.0727 H   0  0  0  0  0  0
   -6.1232  -12.8247   38.0147 H   0  0  0  0  0  0
   -4.7434   -8.5176   35.9682 H   0  0  0  0  0  0
   -8.3828   -5.6939   36.0435 H   0  0  0  0  0  0
   -5.2475   -8.5448   40.0952 H   0  0  0  0  0  0
   -5.1889  -14.5480   34.4767 H   0  0  0  0  0  0
   -5.7259  -12.8977   34.0337 H   0  0  0  0  0  0
   -6.5601  -13.7933   35.3308 H   0  0  0  0  0  0
   -3.9307  -10.6039   32.6156 H   0  0  0  0  0  0
   -5.2809   -9.7336   33.4077 H   0  0  0  0  0  0
   -5.2606  -11.5165   33.3755 H   0  0  0  0  0  0
  -10.2118   -3.1373   34.7963 H   0  0  0  0  0  0
  -10.1459   -4.8041   35.4489 H   0  0  0  0  0  0
   -8.6643   -4.0219   34.8381 H   0  0  0  0  0  0
   -7.8259   -3.9157   42.8617 H   0  0  0  0  0  0
   -8.2505   -5.4295   42.0037 H   0  0  0  0  0  0
   -9.1449   -3.9250   41.6620 H   0  0  0  0  0  0
   -8.3584   -0.4354   39.3624 H   0  0  0  0  0  0
   -7.7049   -1.2383   37.9007 H   0  0  0  0  0  0
   -6.9337   -1.5001   39.4871 H   0  0  0  0  0  0
  1  2  2  0  0  0
  1  5  1  0  0  0
  1 28  1  0  0  0
  2  8  1  0  0  0
  2 29  1  0  0  0
  3  5  2  0  0  0
  3  9  1  0  0  0
  3 30  1  0  0  0
  4  7  2  0  0  0
  4 10  1  0  0  0
  4 31  1  0  0  0
  5 14  1  0  0  0
  6  7  1  0  0  0
  6 11  2  0  0  0
  6 15  1  0  0  0
  7 22  1  0  0  0
  8  9  2  0  0  0
  8 23  1  0  0  0
  9 24  1  0  0  0
 10 12  2  0  0  0
 10 25  1  0  0  0
 11 12  1  0  0  0
 11 26  1  0  0  0
 12 27  1  0  0  0
 13 14  2  0  0  0
 13 15  1  0  0  0
 13 32  1  0  0  0
 14 22  1  0  0  0
 15 21  2  0  0  0
 16 23  1  0  0  0
 16 33  1  0  0  0
 16 34  1  0  0  0
 16 35  1  0  0  0
 17 24  1  0  0  0
 17 36  1  0  0  0
 17 37  1  0  0  0
 17 38  1  0  0  0
 18 25  1  0  0  0
 18 39  1  0  0  0
 18 40  1  0  0  0
 18 41  1  0  0  0
 19 26  1  0  0  0
 19 42  1  0  0  0
 19 43  1  0  0  0
 19 44  1  0  0  0
 20 27  1  0  0  0
 20 45  1  0  0  0
 20 46  1  0  0  0
 20 47  1  0  0  0
M  END
> <EON_Query>
60c

> <EON_ET_pb>
0.346

> <EON_ET_coul>
0.353

> <EON_ET_combo>
0.922

> <EON_ShapeTanimoto>
0.576

> <ROCS_ShapeQuery>
60c

> <ROCS_TanimotoCombo>
0.894

> <ROCS_ShapeTanimoto>
0.619

> <ROCS_ColorTanimoto>
0.275

> <ROCS_RefTversky>
0.746

> <ROCS_RefColorTversky>
0.432

> <ROCS_RefTverskyCombo>
1.178

> <ROCS_FitTversky>
0.783

> <ROCS_FitColorTversky>
0.432

> <ROCS_FitTverskyCombo>
1.215

> <ROCS_ColorScore>
-4.32

> <ROCS_Overlap>
977.698

> <ROCS_Rank>
103

> <EON_Rank>
13

> <i_qp_#stars>
0

> <i_qp_#amine>
0

> <i_qp_#amidine>
0

> <i_qp_#acid>
0

> <i_qp_#amide>
0

> <i_qp_#rotor>
5

> <i_qp_#rtvFG>
0

> <i_qp_CNS>
0

> <r_qp_mol_MW>
372.374

> <r_qp_dipole>
7.83657

> <r_qp_SASA>
608.846

> <r_qp_FOSA>
392.804

> <r_qp_FISA>
39.1044

> <r_qp_PISA>
176.938

> <r_qp_WPSA>
0

> <r_qp_volume>
1101.66

> <r_qp_donorHB>
0

> <r_qp_accptHB>
6.25

> <r_qp_dip^2/V>
0.055745

> <r_qp_ACxDN^.5/SA>
0

> <r_qp_glob>
0.847271

> <r_qp_QPpolrz>
36.4136

> <r_qp_QPlogPC16>
9.98603

> <r_qp_QPlogPoct>
15.543

> <r_qp_QPlogPw>
7.70711

> <r_qp_QPlogPo/w>
3.37512

> <r_qp_QPlogS>
-3.66833

> <r_qp_CIQPlogS>
-5.04095

> <r_qp_QPlogHERG>
-4.84713

> <r_qp_QPPCaco>
4217.67

> <r_qp_QPlogBB>
-0.100991

> <r_qp_QPPMDCK>
2344.12

> <r_qp_QPlogKp>
-1.13685

> <r_qp_IP(eV)>
9.25894

> <r_qp_EA(eV)>
0.746771

> <i_qp_#metab>
5

> <r_qp_QPlogKhsa>
-0.0680623

> <i_qp_HumanOralAbsorption>
3

> <r_qp_PercentHumanOralAbsorption>
100

> <r_qp_SAfluorine>
0

> <r_qp_SAamideO>
0

> <r_qp_PSA>
71.5955

> <i_qp_#NandO>
7

> <i_qp_RuleOfFive>
0

> <i_qp_RuleOfThree>
0

> <i_qp_#ringatoms>
16

> <i_qp_#in34>
0

> <i_qp_#in56>
16

> <i_qp_#noncon>
0

> <i_qp_#nonHatm>
27

> <r_qp_Jm>
5.83182

> <stars>
0

> <logP>
3.37512

> <Caco>
4217.67

> <MDCK>
2344.12

> <HumanOralAbsorption>
3

> <PercentHumanOralAbsorption>
100.0

> <RuleOfFive>
0

> <base>
fda.sdf

$$$$
Z743362616_168
                    3D
 Schrodinger Suite 2022-3.
 33 33  0  0  1  0            999 V2000
   -8.7278   -5.5727   37.4291 C   0  0  0  0  0  0
   -8.1399   -6.2766   38.4743 C   0  0  0  0  0  0
   -8.6713   -4.1888   37.4668 C   0  0  0  0  0  0
   -7.5198   -4.2007   39.4549 C   0  0  0  0  0  0
   -7.5225   -5.5851   39.5105 C   0  0  0  0  0  0
   -6.8869   -6.3098   40.6398 C   0  0  0  0  0  0
   -4.5580  -10.8039   34.2767 C   0  0  0  0  0  0
   -4.8375  -11.2555   35.7011 C   0  0  0  0  0  0
   -5.0226  -10.0659   36.6389 C   0  0  0  0  0  0
   -5.3453  -10.5132   38.0574 C   0  0  0  0  0  0
   -5.9748   -8.4510   41.0383 C   0  0  0  0  0  0
   -5.8245   -9.7162   40.2156 C   0  0  0  0  0  0
   -8.0804   -3.4821   38.4563 N   0  0  0  0  0  0
   -6.3335   -5.7458   41.5710 O   0  0  0  0  0  0
   -7.0143   -7.6559   40.4812 O   0  0  0  0  0  0
   -5.5196   -9.3629   38.8732 O   0  0  0  0  0  0
   -9.2141   -6.0905   36.6105 H   0  0  0  0  0  0
   -8.1694   -7.3630   38.4718 H   0  0  0  0  0  0
   -9.1152   -3.5935   36.6759 H   0  0  0  0  0  0
   -7.0527   -3.6060   40.2342 H   0  0  0  0  0  0
   -3.6622  -10.1762   34.2327 H   0  0  0  0  0  0
   -4.4086  -11.6631   33.6150 H   0  0  0  0  0  0
   -5.4005  -10.2211   33.8916 H   0  0  0  0  0  0
   -5.7382  -11.8803   35.7101 H   0  0  0  0  0  0
   -4.0064  -11.8794   36.0501 H   0  0  0  0  0  0
   -4.1169   -9.4468   36.6504 H   0  0  0  0  0  0
   -5.8257   -9.4145   36.2719 H   0  0  0  0  0  0
   -6.2689  -11.1002   38.0813 H   0  0  0  0  0  0
   -4.5299  -11.1141   38.4728 H   0  0  0  0  0  0
   -5.0525   -7.8620   41.0282 H   0  0  0  0  0  0
   -6.2453   -8.6950   42.0698 H   0  0  0  0  0  0
   -6.7518  -10.2976   40.2129 H   0  0  0  0  0  0
   -5.0059  -10.3297   40.6030 H   0  0  0  0  0  0
  1  2  2  0  0  0
  1  3  1  0  0  0
  1 17  1  0  0  0
  2  5  1  0  0  0
  2 18  1  0  0  0
  3 13  2  0  0  0
  3 19  1  0  0  0
  4  5  2  0  0  0
  4 13  1  0  0  0
  4 20  1  0  0  0
  5  6  1  0  0  0
  6 14  2  0  0  0
  6 15  1  0  0  0
  7  8  1  0  0  0
  7 21  1  0  0  0
  7 22  1  0  0  0
  7 23  1  0  0  0
  8  9  1  0  0  0
  8 24  1  0  0  0
  8 25  1  0  0  0
  9 10  1  0  0  0
  9 26  1  0  0  0
  9 27  1  0  0  0
 10 16  1  0  0  0
 10 28  1  0  0  0
 10 29  1  0  0  0
 11 12  1  0  0  0
 11 15  1  0  0  0
 11 30  1  0  0  0
 11 31  1  0  0  0
 12 16  1  0  0  0
 12 32  1  0  0  0
 12 33  1  0  0  0
M  END
> <EON_Query>
60c

> <EON_ET_pb>
0.223

> <EON_ET_coul>
0.308

> <EON_ET_combo>
0.846

> <EON_ShapeTanimoto>
0.623

> <ROCS_ShapeQuery>
60c

> <ROCS_TanimotoCombo>
0.845

> <ROCS_ShapeTanimoto>
0.656

> <ROCS_ColorTanimoto>
0.189

> <ROCS_RefTversky>
0.615

> <ROCS_RefColorTversky>
0.244

> <ROCS_RefTverskyCombo>
0.859

> <ROCS_FitTversky>
1.113

> <ROCS_FitColorTversky>
0.454

> <ROCS_FitTverskyCombo>
1.567

> <ROCS_ColorScore>
-2.382

> <ROCS_Overlap>
788.112

> <ROCS_Rank>
291

> <EON_Rank>
24

> <i_qp_#stars>
0

> <i_qp_#amine>
0

> <i_qp_#amidine>
0

> <i_qp_#acid>
0

> <i_qp_#amide>
0

> <i_qp_#rotor>
7

> <i_qp_#rtvFG>
1

> <i_qp_CNS>
0

> <r_qp_mol_MW>
223.271

> <r_qp_dipole>
5.85189

> <r_qp_SASA>
519.638

> <r_qp_FOSA>
288.904

> <r_qp_FISA>
82.9306

> <r_qp_PISA>
147.804

> <r_qp_WPSA>
0

> <r_qp_volume>
854.966

> <r_qp_donorHB>
0

> <r_qp_accptHB>
5.2

> <r_qp_dip^2/V>
0.0400537

> <r_qp_ACxDN^.5/SA>
0

> <r_qp_glob>
0.838359

> <r_qp_QPpolrz>
24.9786

> <r_qp_QPlogPC16>
7.64458

> <r_qp_QPlogPoct>
10.7714

> <r_qp_QPlogPw>
6.11685

> <r_qp_QPlogPo/w>
1.93962

> <r_qp_QPlogS>
-2.20203

> <r_qp_CIQPlogS>
-1.7621

> <r_qp_QPlogHERG>
-4.8524

> <r_qp_QPPCaco>
1619.83

> <r_qp_QPlogBB>
-0.645005

> <r_qp_QPPMDCK>
833.224

> <r_qp_QPlogKp>
-1.85517

> <r_qp_IP(eV)>
10.3686

> <r_qp_EA(eV)>
0.646748

> <i_qp_#metab>
3

> <r_qp_QPlogKhsa>
-0.588253

> <i_qp_HumanOralAbsorption>
3

> <r_qp_PercentHumanOralAbsorption>
95.746

> <r_qp_SAfluorine>
0

> <r_qp_SAamideO>
0

> <r_qp_PSA>
56.0042

> <i_qp_#NandO>
4

> <i_qp_RuleOfFive>
0

> <i_qp_RuleOfThree>
0

> <i_qp_#ringatoms>
6

> <i_qp_#in34>
0

> <i_qp_#in56>
6

> <i_qp_#noncon>
0

> <i_qp_#nonHatm>
16

> <r_qp_Jm>
19.5718

> <stars>
0

> <logP>
1.93962

> <Caco>
1619.83

> <MDCK>
833.224

> <HumanOralAbsorption>
3

> <PercentHumanOralAbsorption>
95.746

> <RuleOfFive>
0

> <base>
fda.sdf

$$$$
CAPITAL SOLEIL 15 (avobenzone ).cdx_215
                    3D
 Schrodinger Suite 2022-3.
 45 46  0  0  1  0            999 V2000
   -6.5487  -10.1590   38.3820 C   0  0  0  0  0  0
   -4.3613   -9.1639   38.6311 C   0  0  0  0  0  0
   -7.8675   -6.2527   38.3538 C   0  0  0  0  0  0
   -7.8193   -4.3582   39.8525 C   0  0  0  0  0  0
   -6.2031  -10.5994   37.1045 C   0  0  0  0  0  0
   -4.0156   -9.6043   37.3535 C   0  0  0  0  0  0
   -8.4830   -5.4664   37.3798 C   0  0  0  0  0  0
   -8.4347   -3.5720   38.8784 C   0  0  0  0  0  0
   -5.6279   -9.4412   39.1453 C   0  0  0  0  0  0
   -7.5357   -5.6986   39.5901 C   0  0  0  0  0  0
   -4.9364  -10.3221   36.5903 C   0  0  0  0  0  0
   -8.7666   -4.1261   37.6421 C   0  0  0  0  0  0
   -5.9871   -8.9819   40.4777 C   0  0  0  0  0  0
   -6.8776   -6.5387   40.6313 C   0  0  0  0  0  0
   -5.5193  -10.1969   34.1427 C   0  0  0  0  0  0
   -4.6531  -12.3485   35.1206 C   0  0  0  0  0  0
   -3.1204  -10.4252   34.7553 C   0  0  0  0  0  0
   -9.6796   -3.9887   35.4504 C   0  0  0  0  0  0
   -7.1786   -8.0278   40.6600 C   0  0  0  0  0  0
   -4.5554  -10.8088   35.1823 C   0  0  0  0  0  0
   -5.3191   -9.3359   41.4689 O   0  0  0  0  0  0
   -6.1349   -6.0002   41.4484 O   0  0  0  0  0  0
   -9.3673   -3.3588   36.6920 O   0  0  0  0  0  0
   -7.5382  -10.3803   38.7736 H   0  0  0  0  0  0
   -3.6358   -8.6054   39.2167 H   0  0  0  0  0  0
   -7.6511   -7.2958   38.1379 H   0  0  0  0  0  0
   -7.5644   -3.9170   40.8126 H   0  0  0  0  0  0
   -6.9266  -11.1582   36.5170 H   0  0  0  0  0  0
   -3.0262   -9.3843   36.9609 H   0  0  0  0  0  0
   -8.7392   -5.9038   36.4187 H   0  0  0  0  0  0
   -8.6534   -2.5286   39.0887 H   0  0  0  0  0  0
   -5.2689  -10.5286   33.1283 H   0  0  0  0  0  0
   -6.5612  -10.4824   34.3247 H   0  0  0  0  0  0
   -5.4710   -9.1016   34.1569 H   0  0  0  0  0  0
   -4.3895  -12.7414   34.1325 H   0  0  0  0  0  0
   -3.9741  -12.8169   35.8428 H   0  0  0  0  0  0
   -5.6699  -12.6888   35.3494 H   0  0  0  0  0  0
   -2.8966  -10.7936   33.7468 H   0  0  0  0  0  0
   -2.9811   -9.3380   34.7387 H   0  0  0  0  0  0
   -2.3703  -10.8557   35.4290 H   0  0  0  0  0  0
  -10.1548   -3.2653   34.7833 H   0  0  0  0  0  0
  -10.3508   -4.8327   35.6278 H   0  0  0  0  0  0
   -8.7555   -4.3503   34.9931 H   0  0  0  0  0  0
   -7.8815   -8.2589   39.8521 H   0  0  0  0  0  0
   -7.6276   -8.2361   41.6374 H   0  0  0  0  0  0
  1  5  2  0  0  0
  1  9  1  0  0  0
  1 24  1  0  0  0
  2  6  1  0  0  0
  2  9  2  0  0  0
  2 25  1  0  0  0
  3  7  2  0  0  0
  3 10  1  0  0  0
  3 26  1  0  0  0
  4  8  1  0  0  0
  4 10  2  0  0  0
  4 27  1  0  0  0
  5 11  1  0  0  0
  5 28  1  0  0  0
  6 11  2  0  0  0
  6 29  1  0  0  0
  7 12  1  0  0  0
  7 30  1  0  0  0
  8 12  2  0  0  0
  8 31  1  0  0  0
  9 13  1  0  0  0
 10 14  1  0  0  0
 11 20  1  0  0  0
 12 23  1  0  0  0
 13 19  1  0  0  0
 13 21  2  0  0  0
 14 19  1  0  0  0
 14 22  2  0  0  0
 15 20  1  0  0  0
 15 32  1  0  0  0
 15 33  1  0  0  0
 15 34  1  0  0  0
 16 20  1  0  0  0
 16 35  1  0  0  0
 16 36  1  0  0  0
 16 37  1  0  0  0
 17 20  1  0  0  0
 17 38  1  0  0  0
 17 39  1  0  0  0
 17 40  1  0  0  0
 18 23  1  0  0  0
 18 41  1  0  0  0
 18 42  1  0  0  0
 18 43  1  0  0  0
 19 44  1  0  0  0
 19 45  1  0  0  0
M  END
> <EON_Query>
60c

> <EON_ET_pb>
0.27

> <EON_ET_coul>
0.263

> <EON_ET_combo>
0.829

> <EON_ShapeTanimoto>
0.558

> <ROCS_ShapeQuery>
60c

> <ROCS_TanimotoCombo>
0.923

> <ROCS_ShapeTanimoto>
0.708

> <ROCS_ColorTanimoto>
0.215

> <ROCS_RefTversky>
0.742

> <ROCS_RefColorTversky>
0.306

> <ROCS_RefTverskyCombo>
1.048

> <ROCS_FitTversky>
0.939

> <ROCS_FitColorTversky>
0.421

> <ROCS_FitTverskyCombo>
1.36

> <ROCS_ColorScore>
-3.014

> <ROCS_Overlap>
962.987

> <ROCS_Rank>
60

> <EON_Rank>
25

> <i_qp_#stars>
0

> <i_qp_#amine>
0

> <i_qp_#amidine>
0

> <i_qp_#acid>
0

> <i_qp_#amide>
0

> <i_qp_#rotor>
6

> <i_qp_#rtvFG>
0

> <i_qp_CNS>
0

> <r_qp_mol_MW>
310.392

> <r_qp_dipole>
8.60376

> <r_qp_SASA>
601.211

> <r_qp_FOSA>
310.32

> <r_qp_FISA>
82.4102

> <r_qp_PISA>
208.481

> <r_qp_WPSA>
0

> <r_qp_volume>
1075.94

> <r_qp_donorHB>
0

> <r_qp_accptHB>
4.75

> <r_qp_dip^2/V>
0.0688002

> <r_qp_ACxDN^.5/SA>
0

> <r_qp_glob>
0.844622

> <r_qp_QPpolrz>
35.0434

> <r_qp_QPlogPC16>
10.2666

> <r_qp_QPlogPoct>
14.6477

> <r_qp_QPlogPw>
6.49978

> <r_qp_QPlogPo/w>
3.67503

> <r_qp_QPlogS>
-4.14625

> <r_qp_CIQPlogS>
-4.18064

> <r_qp_QPlogHERG>
-5.04041

> <r_qp_QPPCaco>
1638.34

> <r_qp_QPlogBB>
-0.568253

> <r_qp_QPPMDCK>
843.521

> <r_qp_QPlogKp>
-1.72784

> <r_qp_IP(eV)>
9.48498

> <r_qp_EA(eV)>
0.40712

> <i_qp_#metab>
2

> <r_qp_QPlogKhsa>
0.216059

> <i_qp_HumanOralAbsorption>
3

> <r_qp_PercentHumanOralAbsorption>
100

> <r_qp_SAfluorine>
0

> <r_qp_SAamideO>
0

> <r_qp_PSA>
61.223

> <i_qp_#NandO>
3

> <i_qp_RuleOfFive>
0

> <i_qp_RuleOfThree>
0

> <i_qp_#ringatoms>
12

> <i_qp_#in34>
0

> <i_qp_#in56>
12

> <i_qp_#noncon>
0

> <i_qp_#nonHatm>
23

> <r_qp_Jm>
0.414776

> <stars>
0

> <logP>
3.67503

> <Caco>
1638.34

> <MDCK>
843.521

> <HumanOralAbsorption>
3

> <PercentHumanOralAbsorption>
100.0

> <RuleOfFive>
0

> <base>
fda.sdf

$$$$
FENOFIBRATE (MICRONIZED) (fenofibrate).cdx_280
                    3D
 Schrodinger Suite 2022-3.
 46 47  0  0  1  0            999 V2000
   -5.6453   -8.3734   39.1766 C   0  0  0  0  0  0
   -6.8380   -8.8738   41.2171 C   0  0  0  0  0  0
   -8.3634   -6.2838   38.7229 C   0  0  0  0  0  0
   -7.0851   -4.3393   39.3722 C   0  0  0  0  0  0
   -5.4050   -9.7337   38.9834 C   0  0  0  0  0  0
   -6.5978  -10.2341   41.0240 C   0  0  0  0  0  0
   -9.0707   -5.5114   37.8017 C   0  0  0  0  0  0
   -7.7923   -3.5668   38.4509 C   0  0  0  0  0  0
   -6.3618   -7.9435   40.2934 C   0  0  0  0  0  0
   -7.3707   -5.6978   39.5083 C   0  0  0  0  0  0
   -5.8812  -10.6641   39.9072 C   0  0  0  0  0  0
   -8.7851   -4.1529   37.6657 C   0  0  0  0  0  0
   -6.6126   -6.5251   40.4948 C   0  0  0  0  0  0
   -5.1206  -12.4797   37.4099 C   0  0  0  0  0  0
   -5.5047  -11.4903   33.9695 C   0  0  0  0  0  0
   -3.8963  -10.3042   35.5050 C   0  0  0  0  0  0
   -6.4476  -14.0518   38.8017 C   0  0  0  0  0  0
   -7.4352  -11.8342   38.1432 C   0  0  0  0  0  0
   -4.7110  -11.5660   35.2650 C   0  0  0  0  0  0
   -6.1576  -12.5799   38.5253 C   0  0  0  0  0  0
   -6.1945   -5.9549   41.5135 O   0  0  0  0  0  0
   -3.9939  -12.9563   37.4774 O   0  0  0  0  0  0
   -5.6451  -12.0009   39.7177 O   0  0  0  0  0  0
   -5.6129  -11.7599   36.3592 O   0  0  0  0  0  0
   -9.6566   -3.2003   36.5283 Cl  0  0  0  0  0  0
   -5.2696   -7.6576   38.4499 H   0  0  0  0  0  0
   -7.3977   -8.5489   42.0906 H   0  0  0  0  0  0
   -8.5944   -7.3414   38.8212 H   0  0  0  0  0  0
   -6.3134   -3.8722   39.9786 H   0  0  0  0  0  0
   -4.8461  -10.0624   38.1115 H   0  0  0  0  0  0
   -6.9710  -10.9542   41.7471 H   0  0  0  0  0  0
   -9.8413   -5.9811   37.1959 H   0  0  0  0  0  0
   -7.5590   -2.5094   38.3561 H   0  0  0  0  0  0
   -6.1842  -10.6327   33.9697 H   0  0  0  0  0  0
   -4.8281  -11.4009   33.1129 H   0  0  0  0  0  0
   -6.0914  -12.4023   33.8125 H   0  0  0  0  0  0
   -4.5374   -9.4181   35.5416 H   0  0  0  0  0  0
   -3.1583  -10.1694   34.7069 H   0  0  0  0  0  0
   -3.3354  -10.3698   36.4439 H   0  0  0  0  0  0
   -7.1891  -14.1753   39.5982 H   0  0  0  0  0  0
   -5.5337  -14.5844   39.0878 H   0  0  0  0  0  0
   -6.8318  -14.5502   37.9039 H   0  0  0  0  0  0
   -8.1825  -11.9037   38.9417 H   0  0  0  0  0  0
   -7.8747  -12.2262   37.2197 H   0  0  0  0  0  0
   -7.2330  -10.7672   37.9935 H   0  0  0  0  0  0
   -4.0423  -12.4324   35.2338 H   0  0  0  0  0  0
  1  5  2  0  0  0
  1  9  1  0  0  0
  1 26  1  0  0  0
  2  6  1  0  0  0
  2  9  2  0  0  0
  2 27  1  0  0  0
  3  7  2  0  0  0
  3 10  1  0  0  0
  3 28  1  0  0  0
  4  8  1  0  0  0
  4 10  2  0  0  0
  4 29  1  0  0  0
  5 11  1  0  0  0
  5 30  1  0  0  0
  6 11  2  0  0  0
  6 31  1  0  0  0
  7 12  1  0  0  0
  7 32  1  0  0  0
  8 12  2  0  0  0
  8 33  1  0  0  0
  9 13  1  0  0  0
 10 13  1  0  0  0
 11 23  1  0  0  0
 12 25  1  0  0  0
 13 21  2  0  0  0
 14 20  1  0  0  0
 14 22  2  0  0  0
 14 24  1  0  0  0
 15 19  1  0  0  0
 15 34  1  0  0  0
 15 35  1  0  0  0
 15 36  1  0  0  0
 16 19  1  0  0  0
 16 37  1  0  0  0
 16 38  1  0  0  0
 16 39  1  0  0  0
 17 20  1  0  0  0
 17 40  1  0  0  0
 17 41  1  0  0  0
 17 42  1  0  0  0
 18 20  1  0  0  0
 18 43  1  0  0  0
 18 44  1  0  0  0
 18 45  1  0  0  0
 19 24  1  0  0  0
 19 46  1  0  0  0
 20 23  1  0  0  0
M  END
> <EON_Query>
60c

> <EON_ET_pb>
0.27

> <EON_ET_coul>
0.295

> <EON_ET_combo>
0.824

> <EON_ShapeTanimoto>
0.554

> <ROCS_ShapeQuery>
60c

> <ROCS_TanimotoCombo>
0.876

> <ROCS_ShapeTanimoto>
0.661

> <ROCS_ColorTanimoto>
0.215

> <ROCS_RefTversky>
0.738

> <ROCS_RefColorTversky>
0.306

> <ROCS_RefTverskyCombo>
1.044

> <ROCS_FitTversky>
0.863

> <ROCS_FitColorTversky>
0.421

> <ROCS_FitTverskyCombo>
1.284

> <ROCS_ColorScore>
-3.013

> <ROCS_Overlap>
961.91

> <ROCS_Rank>
155

> <EON_Rank>
26

> <i_qp_#stars>
0

> <i_qp_#amine>
0

> <i_qp_#amidine>
0

> <i_qp_#acid>
0

> <i_qp_#amide>
0

> <i_qp_#rotor>
6

> <i_qp_#rtvFG>
0

> <i_qp_CNS>
0

> <r_qp_mol_MW>
360.836

> <r_qp_dipole>
5.45509

> <r_qp_SASA>
655.71

> <r_qp_FOSA>
265.412

> <r_qp_FISA>
69.9304

> <r_qp_PISA>
248.822

> <r_qp_WPSA>
71.5456

> <r_qp_volume>
1178.35

> <r_qp_donorHB>
0

> <r_qp_accptHB>
4.75

> <r_qp_dip^2/V>
0.0252541

> <r_qp_ACxDN^.5/SA>
0

> <r_qp_glob>
0.822814

> <r_qp_QPpolrz>
39.527

> <r_qp_QPlogPC16>
11.9141

> <r_qp_QPlogPoct>
15.9296

> <r_qp_QPlogPw>
6.84554

> <r_qp_QPlogPo/w>
4.7497

> <r_qp_QPlogS>
-5.49087

> <r_qp_CIQPlogS>
-5.25193

> <r_qp_QPlogHERG>
-5.58568

> <r_qp_QPPCaco>
2151.54

> <r_qp_QPlogBB>
-0.311152

> <r_qp_QPPMDCK>
2792.16

> <r_qp_QPlogKp>
-1.35573

> <r_qp_IP(eV)>
9.70997

> <r_qp_EA(eV)>
0.741488

> <i_qp_#metab>
1

> <r_qp_QPlogKhsa>
0.513352

> <i_qp_HumanOralAbsorption>
3

> <r_qp_PercentHumanOralAbsorption>
100

> <r_qp_SAfluorine>
0

> <r_qp_SAamideO>
0

> <r_qp_PSA>
60.346

> <i_qp_#NandO>
4

> <i_qp_RuleOfFive>
0

> <i_qp_RuleOfThree>
0

> <i_qp_#ringatoms>
12

> <i_qp_#in34>
0

> <i_qp_#in56>
12

> <i_qp_#noncon>
0

> <i_qp_#nonHatm>
25

> <r_qp_Jm>
0.0513701

> <stars>
0

> <logP>
4.7497

> <Caco>
2151.54

> <MDCK>
2792.16

> <HumanOralAbsorption>
3

> <PercentHumanOralAbsorption>
100.0

> <RuleOfFive>
0

> <base>
fda.sdf

$$$$
Trimebutine.cdx_19
                    3D
 Schrodinger Suite 2022-3.
 58 59  0  0  1  0            999 V2000
   -4.0970  -11.0611   35.3616 C   0  0  0  0  0  0
   -4.3182  -12.1455   36.2105 C   0  0  0  0  0  0
   -4.4464   -9.7736   35.7693 C   0  0  0  0  0  0
   -4.8888  -11.9426   37.4671 C   0  0  0  0  0  0
   -5.0170   -9.5706   37.0258 C   0  0  0  0  0  0
   -8.0237   -6.3408   37.9791 C   0  0  0  0  0  0
   -7.0403   -4.4632   39.1386 C   0  0  0  0  0  0
   -7.0909   -5.8336   38.8836 C   0  0  0  0  0  0
   -5.2381  -10.6551   37.8748 C   0  0  0  0  0  0
   -8.9061   -5.4775   37.3295 C   0  0  0  0  0  0
   -7.9226   -3.5999   38.4891 C   0  0  0  0  0  0
   -8.8555   -4.1070   37.5846 C   0  0  0  0  0  0
   -6.1494   -6.7516   39.5733 C   0  0  0  0  0  0
   -3.8716  -11.5119   40.5346 C   0  0  0  0  0  0
   -7.8878  -11.7827   38.7201 C   0  0  0  0  0  0
   -7.9307  -10.1787   40.6244 C   0  0  0  0  0  0
   -9.7970   -7.3972   36.2447 C   0  0  0  0  0  0
   -6.8800   -1.8277   39.6842 C   0  0  0  0  0  0
   -9.2925   -2.7186   35.7039 C   0  0  0  0  0  0
   -5.3782  -11.4870   40.2892 C   0  0  0  0  0  0
   -5.5177   -9.0171   39.7826 C   0  0  0  0  0  0
   -5.8657  -10.4314   39.2558 C   0  0  1  0  0  0
   -7.3794  -10.4843   39.2660 N   0  3  0  0  0  0
   -5.3102   -6.3718   40.3751 O   0  0  0  0  0  0
   -9.8119   -5.9856   36.4480 O   0  0  0  0  0  0
   -7.8624   -2.2634   38.7467 O   0  0  0  0  0  0
   -9.7190   -3.2638   36.9503 O   0  0  0  0  0  0
   -6.3628   -8.0380   39.1856 O   0  0  0  0  0  0
   -3.6515  -11.2191   34.3838 H   0  0  0  0  0  0
   -4.0452  -13.1478   35.8937 H   0  0  0  0  0  0
   -4.2733   -8.9289   35.1091 H   0  0  0  0  0  0
   -5.0576  -12.7934   38.1218 H   0  0  0  0  0  0
   -5.2861   -8.5641   37.3349 H   0  0  0  0  0  0
   -8.0659   -7.4083   37.7757 H   0  0  0  0  0  0
   -6.3151   -4.0634   39.8437 H   0  0  0  0  0  0
   -3.4966  -10.5344   40.8504 H   0  0  0  0  0  0
   -3.6395  -12.2247   41.3329 H   0  0  0  0  0  0
   -3.3212  -11.8249   39.6428 H   0  0  0  0  0  0
   -7.4409  -11.9285   37.7349 H   0  0  0  0  0  0
   -7.5878  -12.5750   39.4085 H   0  0  0  0  0  0
   -8.9750  -11.7133   38.6512 H   0  0  0  0  0  0
   -7.5132   -9.2230   40.9468 H   0  0  0  0  0  0
   -9.0176  -10.1237   40.5393 H   0  0  0  0  0  0
   -7.6298  -10.9848   41.2962 H   0  0  0  0  0  0
  -10.5675   -7.6698   35.5194 H   0  0  0  0  0  0
   -9.9800   -7.9050   37.1949 H   0  0  0  0  0  0
   -8.8174   -7.6905   35.8598 H   0  0  0  0  0  0
   -6.9393   -0.7426   39.7974 H   0  0  0  0  0  0
   -5.8860   -2.1143   39.3315 H   0  0  0  0  0  0
   -7.0734   -2.3035   40.6486 H   0  0  0  0  0  0
  -10.0724   -2.0647   35.3055 H   0  0  0  0  0  0
   -9.0885   -3.5301   35.0009 H   0  0  0  0  0  0
   -8.3802   -2.1390   35.8630 H   0  0  0  0  0  0
   -5.6885  -12.4922   39.9770 H   0  0  0  0  0  0
   -5.8740  -11.3118   41.2536 H   0  0  0  0  0  0
   -5.6370   -8.9493   40.8693 H   0  0  0  0  0  0
   -4.4796   -8.7548   39.5462 H   0  0  0  0  0  0
   -7.6986   -9.7630   38.6513 H   0  0  0  0  0  0
  1  2  2  0  0  0
  1  3  1  0  0  0
  1 29  1  0  0  0
  2  4  1  0  0  0
  2 30  1  0  0  0
  3  5  2  0  0  0
  3 31  1  0  0  0
  4  9  2  0  0  0
  4 32  1  0  0  0
  5  9  1  0  0  0
  5 33  1  0  0  0
  6  8  2  0  0  0
  6 10  1  0  0  0
  6 34  1  0  0  0
  7  8  1  0  0  0
  7 11  2  0  0  0
  7 35  1  0  0  0
  8 13  1  0  0  0
  9 22  1  0  0  0
 10 12  2  0  0  0
 10 25  1  0  0  0
 11 12  1  0  0  0
 11 26  1  0  0  0
 12 27  1  0  0  0
 13 24  2  0  0  0
 13 28  1  0  0  0
 14 20  1  0  0  0
 14 36  1  0  0  0
 14 37  1  0  0  0
 14 38  1  0  0  0
 15 23  1  0  0  0
 15 39  1  0  0  0
 15 40  1  0  0  0
 15 41  1  0  0  0
 16 23  1  0  0  0
 16 42  1  0  0  0
 16 43  1  0  0  0
 16 44  1  0  0  0
 17 25  1  0  0  0
 17 45  1  0  0  0
 17 46  1  0  0  0
 17 47  1  0  0  0
 18 26  1  0  0  0
 18 48  1  0  0  0
 18 49  1  0  0  0
 18 50  1  0  0  0
 19 27  1  0  0  0
 19 51  1  0  0  0
 19 52  1  0  0  0
 19 53  1  0  0  0
 20 22  1  0  0  0
 20 54  1  0  0  0
 20 55  1  0  0  0
 21 22  1  0  0  0
 21 28  1  0  0  0
 21 56  1  0  0  0
 21 57  1  0  0  0
 22 23  1  0  0  0
 23 58  1  0  0  0
M  CHG  1  23   1
M  END
> <EON_Query>
60c

> <EON_ET_pb>
0.181

> <EON_ET_coul>
0.103

> <EON_ET_combo>
0.821

> <EON_ShapeTanimoto>
0.64

> <ROCS_ShapeQuery>
60c

> <ROCS_TanimotoCombo>
1.008

> <ROCS_ShapeTanimoto>
0.698

> <ROCS_ColorTanimoto>
0.31

> <ROCS_RefTversky>
0.801

> <ROCS_RefColorTversky>
0.452

> <ROCS_RefTverskyCombo>
1.253

> <ROCS_FitTversky>
0.844

> <ROCS_FitColorTversky>
0.497

> <ROCS_FitTverskyCombo>
1.342

> <ROCS_ColorScore>
-4.502

> <ROCS_Overlap>
1048.21

> <ROCS_Rank>
13

> <EON_Rank>
27

> <i_qp_#stars>
0

> <i_qp_#amine>
1

> <i_qp_#amidine>
0

> <i_qp_#acid>
0

> <i_qp_#amide>
0

> <i_qp_#rotor>
9

> <i_qp_#rtvFG>
1

> <i_qp_CNS>
1

> <r_qp_mol_MW>
387.475

> <r_qp_dipole>
3.56975

> <r_qp_SASA>
657.591

> <r_qp_FOSA>
443.307

> <r_qp_FISA>
40.3106

> <r_qp_PISA>
173.973

> <r_qp_WPSA>
0

> <r_qp_volume>
1238.26

> <r_qp_donorHB>
0

> <r_qp_accptHB>
5.25

> <r_qp_dip^2/V>
0.0102912

> <r_qp_ACxDN^.5/SA>
0

> <r_qp_glob>
0.848041

> <r_qp_QPpolrz>
39.2837

> <r_qp_QPlogPC16>
11.2274

> <r_qp_QPlogPoct>
15.305

> <r_qp_QPlogPw>
5.94508

> <r_qp_QPlogPo/w>
4.21449

> <r_qp_QPlogS>
-3.24495

> <r_qp_CIQPlogS>
-4.53764

> <r_qp_QPlogHERG>
-5.54668

> <r_qp_QPPCaco>
1024.55

> <r_qp_QPlogBB>
0.0459303

> <r_qp_QPPMDCK>
561.845

> <r_qp_QPlogKp>
-2.84808

> <r_qp_IP(eV)>
9.19047

> <r_qp_EA(eV)>
0.460143

> <i_qp_#metab>
5

> <r_qp_QPlogKhsa>
0.426153

> <i_qp_HumanOralAbsorption>
3

> <r_qp_PercentHumanOralAbsorption>
100

> <r_qp_SAfluorine>
0

> <r_qp_SAamideO>
0

> <r_qp_PSA>
58.5364

> <i_qp_#NandO>
6

> <i_qp_RuleOfFive>
0

> <i_qp_RuleOfThree>
0

> <i_qp_#ringatoms>
12

> <i_qp_#in34>
0

> <i_qp_#in56>
12

> <i_qp_#noncon>
0

> <i_qp_#nonHatm>
28

> <r_qp_Jm>
0.312763

> <stars>
0

> <logP>
4.21449

> <Caco>
1024.55

> <MDCK>
561.845

> <HumanOralAbsorption>
3

> <PercentHumanOralAbsorption>
100.0

> <RuleOfFive>
0

> <base>
fda.sdf

$$$$
S5507 Trimebutine maleate.cdx_19
                    3D
 Schrodinger Suite 2022-3.
 58 59  0  0  1  0            999 V2000
   -4.0970  -11.0611   35.3616 C   0  0  0  0  0  0
   -4.3182  -12.1455   36.2105 C   0  0  0  0  0  0
   -4.4464   -9.7736   35.7693 C   0  0  0  0  0  0
   -4.8888  -11.9426   37.4671 C   0  0  0  0  0  0
   -5.0170   -9.5706   37.0258 C   0  0  0  0  0  0
   -8.0237   -6.3408   37.9791 C   0  0  0  0  0  0
   -7.0403   -4.4632   39.1386 C   0  0  0  0  0  0
   -7.0909   -5.8336   38.8836 C   0  0  0  0  0  0
   -5.2381  -10.6551   37.8748 C   0  0  0  0  0  0
   -8.9061   -5.4775   37.3295 C   0  0  0  0  0  0
   -7.9226   -3.5999   38.4891 C   0  0  0  0  0  0
   -8.8555   -4.1070   37.5846 C   0  0  0  0  0  0
   -6.1494   -6.7516   39.5733 C   0  0  0  0  0  0
   -3.8716  -11.5119   40.5346 C   0  0  0  0  0  0
   -7.8878  -11.7827   38.7201 C   0  0  0  0  0  0
   -7.9307  -10.1787   40.6244 C   0  0  0  0  0  0
   -9.7970   -7.3972   36.2447 C   0  0  0  0  0  0
   -6.8800   -1.8277   39.6842 C   0  0  0  0  0  0
   -9.2925   -2.7186   35.7039 C   0  0  0  0  0  0
   -5.3782  -11.4870   40.2892 C   0  0  0  0  0  0
   -5.5177   -9.0171   39.7826 C   0  0  0  0  0  0
   -5.8657  -10.4314   39.2558 C   0  0  1  0  0  0
   -7.3794  -10.4843   39.2660 N   0  3  0  0  0  0
   -5.3102   -6.3718   40.3751 O   0  0  0  0  0  0
   -9.8119   -5.9856   36.4480 O   0  0  0  0  0  0
   -7.8624   -2.2634   38.7467 O   0  0  0  0  0  0
   -9.7190   -3.2638   36.9503 O   0  0  0  0  0  0
   -6.3628   -8.0380   39.1856 O   0  0  0  0  0  0
   -3.6515  -11.2191   34.3838 H   0  0  0  0  0  0
   -4.0452  -13.1478   35.8937 H   0  0  0  0  0  0
   -4.2733   -8.9289   35.1091 H   0  0  0  0  0  0
   -5.0576  -12.7934   38.1218 H   0  0  0  0  0  0
   -5.2861   -8.5641   37.3349 H   0  0  0  0  0  0
   -8.0659   -7.4083   37.7757 H   0  0  0  0  0  0
   -6.3151   -4.0634   39.8437 H   0  0  0  0  0  0
   -3.4966  -10.5344   40.8504 H   0  0  0  0  0  0
   -3.6395  -12.2247   41.3329 H   0  0  0  0  0  0
   -3.3212  -11.8249   39.6428 H   0  0  0  0  0  0
   -7.4409  -11.9285   37.7349 H   0  0  0  0  0  0
   -7.5878  -12.5750   39.4085 H   0  0  0  0  0  0
   -8.9750  -11.7133   38.6512 H   0  0  0  0  0  0
   -7.5132   -9.2230   40.9468 H   0  0  0  0  0  0
   -9.0176  -10.1237   40.5393 H   0  0  0  0  0  0
   -7.6298  -10.9848   41.2962 H   0  0  0  0  0  0
  -10.5675   -7.6698   35.5194 H   0  0  0  0  0  0
   -9.9800   -7.9050   37.1949 H   0  0  0  0  0  0
   -8.8174   -7.6905   35.8598 H   0  0  0  0  0  0
   -6.9393   -0.7426   39.7974 H   0  0  0  0  0  0
   -5.8860   -2.1143   39.3315 H   0  0  0  0  0  0
   -7.0734   -2.3035   40.6486 H   0  0  0  0  0  0
  -10.0724   -2.0647   35.3055 H   0  0  0  0  0  0
   -9.0885   -3.5301   35.0009 H   0  0  0  0  0  0
   -8.3802   -2.1390   35.8630 H   0  0  0  0  0  0
   -5.6885  -12.4922   39.9770 H   0  0  0  0  0  0
   -5.8740  -11.3118   41.2536 H   0  0  0  0  0  0
   -5.6370   -8.9493   40.8693 H   0  0  0  0  0  0
   -4.4796   -8.7548   39.5462 H   0  0  0  0  0  0
   -7.6986   -9.7630   38.6513 H   0  0  0  0  0  0
  1  2  2  0  0  0
  1  3  1  0  0  0
  1 29  1  0  0  0
  2  4  1  0  0  0
  2 30  1  0  0  0
  3  5  2  0  0  0
  3 31  1  0  0  0
  4  9  2  0  0  0
  4 32  1  0  0  0
  5  9  1  0  0  0
  5 33  1  0  0  0
  6  8  2  0  0  0
  6 10  1  0  0  0
  6 34  1  0  0  0
  7  8  1  0  0  0
  7 11  2  0  0  0
  7 35  1  0  0  0
  8 13  1  0  0  0
  9 22  1  0  0  0
 10 12  2  0  0  0
 10 25  1  0  0  0
 11 12  1  0  0  0
 11 26  1  0  0  0
 12 27  1  0  0  0
 13 24  2  0  0  0
 13 28  1  0  0  0
 14 20  1  0  0  0
 14 36  1  0  0  0
 14 37  1  0  0  0
 14 38  1  0  0  0
 15 23  1  0  0  0
 15 39  1  0  0  0
 15 40  1  0  0  0
 15 41  1  0  0  0
 16 23  1  0  0  0
 16 42  1  0  0  0
 16 43  1  0  0  0
 16 44  1  0  0  0
 17 25  1  0  0  0
 17 45  1  0  0  0
 17 46  1  0  0  0
 17 47  1  0  0  0
 18 26  1  0  0  0
 18 48  1  0  0  0
 18 49  1  0  0  0
 18 50  1  0  0  0
 19 27  1  0  0  0
 19 51  1  0  0  0
 19 52  1  0  0  0
 19 53  1  0  0  0
 20 22  1  0  0  0
 20 54  1  0  0  0
 20 55  1  0  0  0
 21 22  1  0  0  0
 21 28  1  0  0  0
 21 56  1  0  0  0
 21 57  1  0  0  0
 22 23  1  0  0  0
 23 58  1  0  0  0
M  CHG  1  23   1
M  END
> <EON_Query>
60c

> <EON_ET_pb>
0.181

> <EON_ET_coul>
0.103

> <EON_ET_combo>
0.821

> <EON_ShapeTanimoto>
0.64

> <ROCS_ShapeQuery>
60c

> <ROCS_TanimotoCombo>
1.008

> <ROCS_ShapeTanimoto>
0.698

> <ROCS_ColorTanimoto>
0.31

> <ROCS_RefTversky>
0.801

> <ROCS_RefColorTversky>
0.452

> <ROCS_RefTverskyCombo>
1.253

> <ROCS_FitTversky>
0.844

> <ROCS_FitColorTversky>
0.497

> <ROCS_FitTverskyCombo>
1.342

> <ROCS_ColorScore>
-4.502

> <ROCS_Overlap>
1048.21

> <ROCS_Rank>
14

> <EON_Rank>
28

> <i_qp_#stars>
0

> <i_qp_#amine>
1

> <i_qp_#amidine>
0

> <i_qp_#acid>
0

> <i_qp_#amide>
0

> <i_qp_#rotor>
9

> <i_qp_#rtvFG>
1

> <i_qp_CNS>
1

> <r_qp_mol_MW>
387.475

> <r_qp_dipole>
3.56975

> <r_qp_SASA>
657.591

> <r_qp_FOSA>
443.307

> <r_qp_FISA>
40.3106

> <r_qp_PISA>
173.973

> <r_qp_WPSA>
0

> <r_qp_volume>
1238.26

> <r_qp_donorHB>
0

> <r_qp_accptHB>
5.25

> <r_qp_dip^2/V>
0.0102912

> <r_qp_ACxDN^.5/SA>
0

> <r_qp_glob>
0.848041

> <r_qp_QPpolrz>
39.2837

> <r_qp_QPlogPC16>
11.2274

> <r_qp_QPlogPoct>
15.305

> <r_qp_QPlogPw>
5.94508

> <r_qp_QPlogPo/w>
4.21449

> <r_qp_QPlogS>
-3.24495

> <r_qp_CIQPlogS>
-4.53764

> <r_qp_QPlogHERG>
-5.54668

> <r_qp_QPPCaco>
1024.55

> <r_qp_QPlogBB>
0.0459303

> <r_qp_QPPMDCK>
561.845

> <r_qp_QPlogKp>
-2.84808

> <r_qp_IP(eV)>
9.19047

> <r_qp_EA(eV)>
0.460143

> <i_qp_#metab>
5

> <r_qp_QPlogKhsa>
0.426153

> <i_qp_HumanOralAbsorption>
3

> <r_qp_PercentHumanOralAbsorption>
100

> <r_qp_SAfluorine>
0

> <r_qp_SAamideO>
0

> <r_qp_PSA>
58.5364

> <i_qp_#NandO>
6

> <i_qp_RuleOfFive>
0

> <i_qp_RuleOfThree>
0

> <i_qp_#ringatoms>
12

> <i_qp_#in34>
0

> <i_qp_#in56>
12

> <i_qp_#noncon>
0

> <i_qp_#nonHatm>
28

> <r_qp_Jm>
0.312763

> <stars>
0

> <logP>
4.21449

> <Caco>
1024.55

> <MDCK>
561.845

> <HumanOralAbsorption>
3

> <PercentHumanOralAbsorption>
100.0

> <RuleOfFive>
0

> <base>
fda.sdf

$$$$
Combretastatin A4.cdx_1
                    3D
 Schrodinger Suite 2022-3.
 43 44  0  0  1  0            999 V2000
   -5.6285   -9.2197   38.6646 C   0  0  0  0  0  0
   -5.1748   -9.6138   37.4059 C   0  0  0  0  0  0
   -4.8180   -6.9808   38.2560 C   0  0  0  0  0  0
   -7.3632   -4.3319   39.5786 C   0  0  0  0  0  0
   -8.2840   -6.3470   38.6150 C   0  0  0  0  0  0
   -5.4502   -7.9032   39.0896 C   0  0  0  0  0  0
   -7.5078   -5.7192   39.5892 C   0  0  0  0  0  0
   -4.5426   -8.6913   36.5721 C   0  0  0  0  0  0
   -4.3642   -7.3748   36.9972 C   0  0  0  0  0  0
   -7.9949   -3.5724   38.5939 C   0  0  0  0  0  0
   -8.9157   -5.5875   37.6303 C   0  0  0  0  0  0
   -8.7712   -4.2002   37.6196 C   0  0  0  0  0  0
   -5.9258   -7.4920   40.4012 C   0  0  0  0  0  0
   -6.8412   -6.5209   40.6305 C   0  0  0  0  0  0
   -4.3259  -10.4518   34.9880 C   0  0  0  0  0  0
   -7.0354   -1.6564   39.6254 C   0  0  0  0  0  0
   -9.7675   -7.6334   36.7674 C   0  0  0  0  0  0
   -8.6577   -3.2178   35.4569 C   0  0  0  0  0  0
   -3.7473   -6.4658   36.1916 O   0  0  0  0  0  0
   -4.1041   -9.0889   35.3453 O   0  0  0  0  0  0
   -7.8454   -2.2185   38.5947 O   0  0  0  0  0  0
   -9.6715   -6.2128   36.6850 O   0  0  0  0  0  0
   -9.3887   -3.4578   36.6571 O   0  0  0  0  0  0
   -6.1205   -9.9496   39.3029 H   0  0  0  0  0  0
   -5.3167  -10.6410   37.0810 H   0  0  0  0  0  0
   -4.6751   -5.9519   38.5792 H   0  0  0  0  0  0
   -6.7597   -3.8343   40.3347 H   0  0  0  0  0  0
   -8.4020   -7.4284   38.6164 H   0  0  0  0  0  0
   -5.5195   -8.0466   41.2542 H   0  0  0  0  0  0
   -7.1092   -6.2629   41.6523 H   0  0  0  0  0  0
   -3.9287  -10.6361   33.9868 H   0  0  0  0  0  0
   -5.3975  -10.6658   35.0115 H   0  0  0  0  0  0
   -3.8120  -11.0956   35.7056 H   0  0  0  0  0  0
   -6.9995   -0.5703   39.5102 H   0  0  0  0  0  0
   -6.0267   -2.0732   39.5656 H   0  0  0  0  0  0
   -7.4726   -1.9035   40.5957 H   0  0  0  0  0  0
  -10.3983   -8.0044   35.9558 H   0  0  0  0  0  0
  -10.1948   -7.9152   37.7331 H   0  0  0  0  0  0
   -8.7674   -8.0632   36.6743 H   0  0  0  0  0  0
   -9.2631   -2.6152   34.7751 H   0  0  0  0  0  0
   -8.4020   -4.1713   34.9881 H   0  0  0  0  0  0
   -7.7406   -2.6766   35.7013 H   0  0  0  0  0  0
   -3.7026   -5.6029   36.6327 H   0  0  0  0  0  0
  1  2  2  0  0  0
  1  6  1  0  0  0
  1 24  1  0  0  0
  2  8  1  0  0  0
  2 25  1  0  0  0
  3  6  2  0  0  0
  3  9  1  0  0  0
  3 26  1  0  0  0
  4  7  2  0  0  0
  4 10  1  0  0  0
  4 27  1  0  0  0
  5  7  1  0  0  0
  5 11  2  0  0  0
  5 28  1  0  0  0
  6 13  1  0  0  0
  7 14  1  0  0  0
  8  9  2  0  0  0
  8 20  1  0  0  0
  9 19  1  0  0  0
 10 12  2  0  0  0
 10 21  1  0  0  0
 11 12  1  0  0  0
 11 22  1  0  0  0
 12 23  1  0  0  0
 13 14  2  0  0  0
 13 29  1  0  0  0
 14 30  1  0  0  0
 15 20  1  0  0  0
 15 31  1  0  0  0
 15 32  1  0  0  0
 15 33  1  0  0  0
 16 21  1  0  0  0
 16 34  1  0  0  0
 16 35  1  0  0  0
 16 36  1  0  0  0
 17 22  1  0  0  0
 17 37  1  0  0  0
 17 38  1  0  0  0
 17 39  1  0  0  0
 18 23  1  0  0  0
 18 40  1  0  0  0
 18 41  1  0  0  0
 18 42  1  0  0  0
 19 43  1  0  0  0
M  END
> <EON_Query>
60c

> <EON_ET_pb>
0.138

> <EON_ET_coul>
0.127

> <EON_ET_combo>
0.82

> <EON_ShapeTanimoto>
0.683

> <ROCS_ShapeQuery>
60c

> <ROCS_TanimotoCombo>
0.874

> <ROCS_ShapeTanimoto>
0.592

> <ROCS_ColorTanimoto>
0.282

> <ROCS_RefTversky>
0.67

> <ROCS_RefColorTversky>
0.4

> <ROCS_RefTverskyCombo>
1.07

> <ROCS_FitTversky>
0.836

> <ROCS_FitColorTversky>
0.488

> <ROCS_FitTverskyCombo>
1.325

> <ROCS_ColorScore>
-3.957

> <ROCS_Overlap>
870.268

> <ROCS_Rank>
166

> <EON_Rank>
29

> <i_qp_#stars>
0

> <i_qp_#amine>
0

> <i_qp_#amidine>
0

> <i_qp_#acid>
0

> <i_qp_#amide>
0

> <i_qp_#rotor>
8

> <i_qp_#rtvFG>
0

> <i_qp_CNS>
0

> <r_qp_mol_MW>
316.353

> <r_qp_dipole>
4.02411

> <r_qp_SASA>
553.665

> <r_qp_FOSA>
383.279

> <r_qp_FISA>
46.9362

> <r_qp_PISA>
123.45

> <r_qp_WPSA>
0

> <r_qp_volume>
1006.66

> <r_qp_donorHB>
1

> <r_qp_accptHB>
3.75

> <r_qp_dip^2/V>
0.0160863

> <r_qp_ACxDN^.5/SA>
0.00677305

> <r_qp_glob>
0.877352

> <r_qp_QPpolrz>
30.1747

> <r_qp_QPlogPC16>
9.09332

> <r_qp_QPlogPoct>
12.8401

> <r_qp_QPlogPw>
5.60409

> <r_qp_QPlogPo/w>
3.91415

> <r_qp_QPlogS>
-3.83343

> <r_qp_CIQPlogS>
-4.85588

> <r_qp_QPlogHERG>
-4.1053

> <r_qp_QPPCaco>
3554.71

> <r_qp_QPlogBB>
-0.32514

> <r_qp_QPPMDCK>
1948.52

> <r_qp_QPlogKp>
-1.18158

> <r_qp_IP(eV)>
8.71063

> <r_qp_EA(eV)>
0.150949

> <i_qp_#metab>
5

> <r_qp_QPlogKhsa>
0.306516

> <i_qp_HumanOralAbsorption>
3

> <r_qp_PercentHumanOralAbsorption>
100

> <r_qp_SAfluorine>
0

> <r_qp_SAamideO>
0

> <r_qp_PSA>
54.5115

> <i_qp_#NandO>
5

> <i_qp_RuleOfFive>
0

> <i_qp_RuleOfThree>
0

> <i_qp_#ringatoms>
12

> <i_qp_#in34>
0

> <i_qp_#in56>
12

> <i_qp_#noncon>
0

> <i_qp_#nonHatm>
23

> <r_qp_Jm>
3.98031

> <stars>
0

> <logP>
3.91415

> <Caco>
3554.71

> <MDCK>
1948.52

> <HumanOralAbsorption>
3

> <PercentHumanOralAbsorption>
100.0

> <RuleOfFive>
0

> <base>
fda.sdf

$$$$
4891_5
                    3D
 Schrodinger Suite 2022-3.
 47 50  0  0  1  0            999 V2000
   -9.8687   -3.8753   35.4377 C   0  0  0  0  0  0
   -9.7548   -5.2431   35.2125 C   0  0  0  0  0  0
   -9.4079   -3.3302   36.6331 C   0  0  0  0  0  0
   -9.1793   -6.0682   36.1815 C   0  0  0  0  0  0
   -8.8146   -4.1502   37.6032 C   0  0  0  0  0  0
   -8.6885   -5.5363   37.3845 C   0  0  0  0  0  0
   -6.7216   -6.4491   40.5283 C   0  0  0  0  0  0
   -5.9150   -9.5391   38.8421 C   0  0  0  0  0  0
   -8.3485   -3.5592   38.9049 C   0  0  0  0  0  0
   -6.9361   -7.9458   40.4288 C   0  0  0  0  0  0
   -4.0456  -11.1976   35.3194 C   0  0  0  0  0  0
   -4.1629   -9.6799   35.4230 C   0  0  0  0  0  0
   -5.2856  -11.8952   35.8701 C   0  0  0  0  0  0
   -4.4659   -9.2347   36.8513 C   0  0  0  0  0  0
   -5.5915  -11.4551   37.2993 C   0  0  0  0  0  0
   -7.1025   -4.2850   39.3821 C   0  0  0  0  0  0
   -7.2871   -7.6127   37.9672 C   0  0  0  0  0  0
   -8.1217   -6.4303   38.4783 C   0  0  1  0  0  0
   -5.7076   -9.9332   37.4099 C   0  0  0  0  0  0
   -7.3232   -5.7227   39.4986 N   0  0  0  0  0  0
   -6.6865   -8.3932   39.0595 N   0  0  0  0  0  0
   -6.1477   -5.9566   41.4991 O   0  0  0  0  0  0
   -5.4145  -10.2211   39.7394 O   0  0  0  0  0  0
  -10.3174   -3.2353   34.6848 H   0  0  0  0  0  0
  -10.1095   -5.6723   34.2789 H   0  0  0  0  0  0
   -9.5190   -2.2634   36.8093 H   0  0  0  0  0  0
   -9.1125   -7.1377   35.9875 H   0  0  0  0  0  0
   -8.1382   -2.4955   38.7496 H   0  0  0  0  0  0
   -9.1286   -3.6468   39.6676 H   0  0  0  0  0  0
   -6.2698   -8.4477   41.1213 H   0  0  0  0  0  0
   -7.9676   -8.1768   40.6768 H   0  0  0  0  0  0
   -3.9006  -11.4825   34.2699 H   0  0  0  0  0  0
   -3.1587  -11.5363   35.8672 H   0  0  0  0  0  0
   -3.2283   -9.2193   35.0838 H   0  0  0  0  0  0
   -4.9529   -9.3260   34.7524 H   0  0  0  0  0  0
   -6.1451  -11.6712   35.2279 H   0  0  0  0  0  0
   -5.1420  -12.9814   35.8340 H   0  0  0  0  0  0
   -3.5992   -9.4244   37.4815 H   0  0  0  0  0  0
   -4.6488   -8.1603   36.8506 H   0  0  0  0  0  0
   -6.5402  -11.8969   37.6084 H   0  0  0  0  0  0
   -4.8173  -11.8314   37.9680 H   0  0  0  0  0  0
   -6.2664   -4.0882   38.6961 H   0  0  0  0  0  0
   -6.7916   -3.9267   40.3756 H   0  0  0  0  0  0
   -7.8941   -8.2857   37.3550 H   0  0  0  0  0  0
   -6.4606   -7.2540   37.3427 H   0  0  0  0  0  0
   -8.9937   -6.8291   39.0578 H   0  0  0  0  0  0
   -6.5820   -9.6002   36.8720 H   0  0  0  0  0  0
  1  2  2  0  0  0
  1  3  1  0  0  0
  1 24  1  0  0  0
  2  4  1  0  0  0
  2 25  1  0  0  0
  3  5  2  0  0  0
  3 26  1  0  0  0
  4  6  2  0  0  0
  4 27  1  0  0  0
  5  6  1  0  0  0
  5  9  1  0  0  0
  6 18  1  0  0  0
  7 10  1  0  0  0
  7 20  1  0  0  0
  7 22  2  0  0  0
  8 19  1  0  0  0
  8 21  1  0  0  0
  8 23  2  0  0  0
  9 16  1  0  0  0
  9 28  1  0  0  0
  9 29  1  0  0  0
 10 21  1  0  0  0
 10 30  1  0  0  0
 10 31  1  0  0  0
 11 12  1  0  0  0
 11 13  1  0  0  0
 11 32  1  0  0  0
 11 33  1  0  0  0
 12 14  1  0  0  0
 12 34  1  0  0  0
 12 35  1  0  0  0
 13 15  1  0  0  0
 13 36  1  0  0  0
 13 37  1  0  0  0
 14 19  1  0  0  0
 14 38  1  0  0  0
 14 39  1  0  0  0
 15 19  1  0  0  0
 15 40  1  0  0  0
 15 41  1  0  0  0
 16 20  1  0  0  0
 16 42  1  0  0  0
 16 43  1  0  0  0
 17 18  1  0  0  0
 17 21  1  0  0  0
 17 44  1  0  0  0
 17 45  1  0  0  0
 18 20  1  0  0  0
 18 46  1  0  0  0
 19 47  1  0  0  0
M  END
> <EON_Query>
60c

> <EON_ET_pb>
0.158

> <EON_ET_coul>
0.125

> <EON_ET_combo>
0.809

> <EON_ShapeTanimoto>
0.651

> <ROCS_ShapeQuery>
60c

> <ROCS_TanimotoCombo>
0.958

> <ROCS_ShapeTanimoto>
0.725

> <ROCS_ColorTanimoto>
0.232

> <ROCS_RefTversky>
0.761

> <ROCS_RefColorTversky>
0.308

> <ROCS_RefTverskyCombo>
1.069

> <ROCS_FitTversky>
0.939

> <ROCS_FitColorTversky>
0.486

> <ROCS_FitTverskyCombo>
1.425

> <ROCS_ColorScore>
-3.018

> <ROCS_Overlap>
988.831

> <ROCS_Rank>
25

> <EON_Rank>
35

> <i_qp_#stars>
0

> <i_qp_#amine>
0

> <i_qp_#amidine>
0

> <i_qp_#acid>
0

> <i_qp_#amide>
2

> <i_qp_#rotor>
1

> <i_qp_#rtvFG>
0

> <i_qp_CNS>
0

> <r_qp_mol_MW>
312.411

> <r_qp_dipole>
8.16941

> <r_qp_SASA>
583.939

> <r_qp_FOSA>
353.581

> <r_qp_FISA>
80.246

> <r_qp_PISA>
150.112

> <r_qp_WPSA>
0

> <r_qp_volume>
1040.66

> <r_qp_donorHB>
0

> <r_qp_accptHB>
6

> <r_qp_dip^2/V>
0.0641318

> <r_qp_ACxDN^.5/SA>
0

> <r_qp_glob>
0.85049

> <r_qp_QPpolrz>
36.2846

> <r_qp_QPlogPC16>
9.51887

> <r_qp_QPlogPoct>
15.7646

> <r_qp_QPlogPw>
13.0469

> <r_qp_QPlogPo/w>
1.53155

> <r_qp_QPlogS>
-1.89145

> <r_qp_CIQPlogS>
-2.12887

> <r_qp_QPlogHERG>
-1.9183

> <r_qp_QPPCaco>
540.765

> <r_qp_QPlogBB>
-0.236395

> <r_qp_QPPMDCK>
887.724

> <r_qp_QPlogKp>
-2.37362

> <r_qp_IP(eV)>
9.47715

> <r_qp_EA(eV)>
0.232114

> <i_qp_#metab>
5

> <r_qp_QPlogKhsa>
-0.651832

> <i_qp_HumanOralAbsorption>
3

> <r_qp_PercentHumanOralAbsorption>
84.8288

> <r_qp_SAfluorine>
0

> <r_qp_SAamideO>
63.055

> <r_qp_PSA>
57.2662

> <i_qp_#NandO>
4

> <i_qp_RuleOfFive>
0

> <i_qp_RuleOfThree>
0

> <i_qp_#ringatoms>
20

> <i_qp_#in34>
0

> <i_qp_#in56>
20

> <i_qp_#noncon>
11

> <i_qp_#nonHatm>
23

> <r_qp_Jm>
16.9689

> <stars>
0

> <logP>
1.53155

> <Caco>
540.765

> <MDCK>
887.724

> <HumanOralAbsorption>
3

> <PercentHumanOralAbsorption>
84.8288

> <RuleOfFive>
0

> <base>
fda.sdf

$$$$
BILTRICIDE (praziquantel).cdx_22
                    3D
 Schrodinger Suite 2022-3.
 47 50  0  0  1  0            999 V2000
   -4.4973  -10.9609   34.9992 C   0  0  0  0  0  0
   -5.2719   -9.8093   35.0988 C   0  0  0  0  0  0
   -4.2421  -11.7273   36.1349 C   0  0  0  0  0  0
   -5.7803   -9.4150   36.3368 C   0  0  0  0  0  0
   -4.7634  -11.3472   37.3795 C   0  0  0  0  0  0
   -5.5179  -10.1655   37.4949 C   0  0  0  0  0  0
   -6.0481  -10.2927   41.2631 C   0  0  0  0  0  0
   -6.4607   -6.5168   40.5515 C   0  0  0  0  0  0
   -4.4933  -12.1894   38.5957 C   0  0  0  0  0  0
   -6.3245   -8.8222   41.5388 C   0  0  0  0  0  0
   -8.8830   -4.3444   37.7109 C   0  0  0  0  0  0
   -8.6081   -5.8204   37.4396 C   0  0  0  0  0  0
   -7.6601   -3.6441   38.2955 C   0  0  0  0  0  0
   -8.0977   -6.5368   38.6870 C   0  0  0  0  0  0
   -7.1471   -4.3554   39.5447 C   0  0  0  0  0  0
   -5.6404  -12.0626   39.5872 C   0  0  0  0  0  0
   -5.4635   -8.3629   39.2507 C   0  0  0  0  0  0
   -6.0658   -9.7039   38.8366 C   0  0  2  0  0  0
   -6.8722   -5.8373   39.2792 C   0  0  0  0  0  0
   -5.8632  -10.6616   39.9351 N   0  0  0  0  0  0
   -6.1362   -7.8733   40.4477 N   0  0  0  0  0  0
   -6.0385  -11.0848   42.2094 O   0  0  0  0  0  0
   -6.4212   -5.8700   41.6005 O   0  0  0  0  0  0
   -4.0939  -11.2637   34.0376 H   0  0  0  0  0  0
   -5.4773   -9.2140   34.2138 H   0  0  0  0  0  0
   -3.6393  -12.6277   36.0438 H   0  0  0  0  0  0
   -6.3831   -8.5110   36.3947 H   0  0  0  0  0  0
   -4.3776  -13.2428   38.3163 H   0  0  0  0  0  0
   -3.5542  -11.8532   39.0513 H   0  0  0  0  0  0
   -7.3842   -8.7238   41.8874 H   0  0  0  0  0  0
   -5.7027   -8.5125   42.4178 H   0  0  0  0  0  0
   -9.1773   -3.8493   36.7771 H   0  0  0  0  0  0
   -9.7278   -4.2485   38.4026 H   0  0  0  0  0  0
   -9.5272   -6.3024   37.0878 H   0  0  0  0  0  0
   -7.8721   -5.9148   36.6344 H   0  0  0  0  0  0
   -6.8644   -3.6111   37.5422 H   0  0  0  0  0  0
   -7.9112   -2.6035   38.5320 H   0  0  0  0  0  0
   -8.8984   -6.6012   39.4212 H   0  0  0  0  0  0
   -7.8133   -7.5530   38.4142 H   0  0  0  0  0  0
   -6.2159   -3.8830   39.8617 H   0  0  0  0  0  0
   -7.8700   -4.2369   40.3519 H   0  0  0  0  0  0
   -6.5752  -12.4409   39.1605 H   0  0  0  0  0  0
   -5.4257  -12.6442   40.4872 H   0  0  0  0  0  0
   -4.4111   -8.4764   39.4949 H   0  0  0  0  0  0
   -5.5648   -7.6262   38.4630 H   0  0  0  0  0  0
   -7.1566   -9.6072   38.7343 H   0  0  0  0  0  0
   -6.0392   -5.9312   38.5994 H   0  0  0  0  0  0
  1  2  2  0  0  0
  1  3  1  0  0  0
  1 24  1  0  0  0
  2  4  1  0  0  0
  2 25  1  0  0  0
  3  5  2  0  0  0
  3 26  1  0  0  0
  4  6  2  0  0  0
  4 27  1  0  0  0
  5  6  1  0  0  0
  5  9  1  0  0  0
  6 18  1  0  0  0
  7 10  1  0  0  0
  7 20  1  0  0  0
  7 22  2  0  0  0
  8 19  1  0  0  0
  8 21  1  0  0  0
  8 23  2  0  0  0
  9 16  1  0  0  0
  9 28  1  0  0  0
  9 29  1  0  0  0
 10 21  1  0  0  0
 10 30  1  0  0  0
 10 31  1  0  0  0
 11 12  1  0  0  0
 11 13  1  0  0  0
 11 32  1  0  0  0
 11 33  1  0  0  0
 12 14  1  0  0  0
 12 34  1  0  0  0
 12 35  1  0  0  0
 13 15  1  0  0  0
 13 36  1  0  0  0
 13 37  1  0  0  0
 14 19  1  0  0  0
 14 38  1  0  0  0
 14 39  1  0  0  0
 15 19  1  0  0  0
 15 40  1  0  0  0
 15 41  1  0  0  0
 16 20  1  0  0  0
 16 42  1  0  0  0
 16 43  1  0  0  0
 17 18  1  0  0  0
 17 21  1  0  0  0
 17 44  1  0  0  0
 17 45  1  0  0  0
 18 20  1  0  0  0
 18 46  1  0  0  0
 19 47  1  0  0  0
M  END
> <EON_Query>
60c

> <EON_ET_pb>
0.176

> <EON_ET_coul>
0.174

> <EON_ET_combo>
0.781

> <EON_ShapeTanimoto>
0.605

> <ROCS_ShapeQuery>
60c

> <ROCS_TanimotoCombo>
1.029

> <ROCS_ShapeTanimoto>
0.715

> <ROCS_ColorTanimoto>
0.314

> <ROCS_RefTversky>
0.755

> <ROCS_RefColorTversky>
0.391

> <ROCS_RefTverskyCombo>
1.145

> <ROCS_FitTversky>
0.932

> <ROCS_FitColorTversky>
0.617

> <ROCS_FitTverskyCombo>
1.548

> <ROCS_ColorScore>
-3.831

> <ROCS_Overlap>
980.586

> <ROCS_Rank>
9

> <EON_Rank>
43

> <i_qp_#stars>
0

> <i_qp_#amine>
0

> <i_qp_#amidine>
0

> <i_qp_#acid>
0

> <i_qp_#amide>
2

> <i_qp_#rotor>
1

> <i_qp_#rtvFG>
0

> <i_qp_CNS>
0

> <r_qp_mol_MW>
312.411

> <r_qp_dipole>
7.79633

> <r_qp_SASA>
565.114

> <r_qp_FOSA>
341.016

> <r_qp_FISA>
81.6997

> <r_qp_PISA>
142.398

> <r_qp_WPSA>
0

> <r_qp_volume>
1023.55

> <r_qp_donorHB>
0

> <r_qp_accptHB>
6

> <r_qp_dip^2/V>
0.0593844

> <r_qp_ACxDN^.5/SA>
0

> <r_qp_glob>
0.869164

> <r_qp_QPpolrz>
35.5262

> <r_qp_QPlogPC16>
9.37132

> <r_qp_QPlogPoct>
15.4853

> <r_qp_QPlogPw>
13.0597

> <r_qp_QPlogPo/w>
1.40083

> <r_qp_QPlogS>
-1.48968

> <r_qp_CIQPlogS>
-2.12887

> <r_qp_QPlogHERG>
-1.57936

> <r_qp_QPPCaco>
510.969

> <r_qp_QPlogBB>
-0.217784

> <r_qp_QPPMDCK>
857.785

> <r_qp_QPlogKp>
-2.42759

> <r_qp_IP(eV)>
9.41041

> <r_qp_EA(eV)>
0.195872

> <i_qp_#metab>
5

> <r_qp_QPlogKhsa>
-0.701499

> <i_qp_HumanOralAbsorption>
3

> <r_qp_PercentHumanOralAbsorption>
83.6229

> <r_qp_SAfluorine>
0

> <r_qp_SAamideO>
64.4155

> <r_qp_PSA>
57.5297

> <i_qp_#NandO>
4

> <i_qp_RuleOfFive>
0

> <i_qp_RuleOfThree>
0

> <i_qp_#ringatoms>
20

> <i_qp_#in34>
0

> <i_qp_#in56>
20

> <i_qp_#noncon>
11

> <i_qp_#nonHatm>
23

> <r_qp_Jm>
37.7972

> <stars>
0

> <logP>
1.40083

> <Caco>
510.969

> <MDCK>
857.785

> <HumanOralAbsorption>
3

> <PercentHumanOralAbsorption>
83.6229

> <RuleOfFive>
0

> <base>
fda.sdf

$$$$
Molecule_80
                    3D
 Schrodinger Suite 2022-3.
 55 57  0  0  1  0            999 V2000
   -8.0024   -3.9836   38.8457 C   0  0  0  0  0  0
   -8.3720   -6.6916   38.3499 C   0  0  0  0  0  0
   -7.4475   -4.9469   39.7060 C   0  0  0  0  0  0
   -7.6272   -6.3191   39.4661 C   0  0  0  0  0  0
   -8.7421   -4.3841   37.7374 C   0  0  0  0  0  0
   -8.9270   -5.7396   37.4897 C   0  0  0  0  0  0
   -6.6977   -4.6136   40.8305 C   0  0  0  0  0  0
   -6.3944   -6.7981   41.3388 C   0  0  0  0  0  0
   -4.6220  -10.6946   38.4431 C   0  0  0  0  0  0
   -4.0062  -10.2153   35.3708 C   0  0  0  0  0  0
   -4.9606   -9.4967   36.2943 C   0  0  0  0  0  0
   -4.6661  -11.5673   35.2256 C   0  0  0  0  0  0
   -5.4665  -10.6092   37.1896 C   0  0  1  0  0  0
   -5.0711   -7.3917   43.3529 C   0  0  0  0  0  0
   -8.4716   -3.0144   35.8121 C   0  0  0  0  0  0
   -9.7900   -7.5618   36.2283 C   0  0  0  0  0  0
   -4.7589   -9.9465   41.6862 C   0  0  0  0  0  0
   -3.9610   -9.4410   40.4861 C   0  0  0  0  0  0
   -6.0624   -9.1872   41.9239 C   0  0  0  0  0  0
   -7.1008   -7.2489   40.2822 N   0  0  0  0  0  0
   -6.1569   -5.5183   41.6681 N   0  0  0  0  0  0
   -6.4739   -3.2484   41.1371 N   0  0  0  0  0  0
   -4.6829   -9.5690   39.2498 N   0  0  0  0  0  0
   -5.8455   -7.7803   42.1920 N   0  0  0  0  0  0
   -3.9661  -11.7064   38.6619 O   0  0  0  0  0  0
   -5.3013  -11.8431   36.4810 O   0  0  0  0  0  0
   -9.2763   -3.4455   36.9086 O   0  0  0  0  0  0
   -9.6478   -6.1546   36.4103 O   0  0  0  0  0  0
   -7.8681   -2.9192   39.0241 H   0  0  0  0  0  0
   -8.5278   -7.7486   38.1390 H   0  0  0  0  0  0
   -3.8553   -9.7077   34.4146 H   0  0  0  0  0  0
   -3.0305  -10.3255   35.8586 H   0  0  0  0  0  0
   -4.4900   -8.6688   36.8334 H   0  0  0  0  0  0
   -5.7925   -9.0881   35.7078 H   0  0  0  0  0  0
   -5.4419  -11.5494   34.4525 H   0  0  0  0  0  0
   -3.9538  -12.3624   34.9889 H   0  0  0  0  0  0
   -6.5052  -10.4695   37.4823 H   0  0  0  0  0  0
   -4.7293   -8.2798   43.8908 H   0  0  0  0  0  0
   -5.6803   -6.7843   44.0276 H   0  0  0  0  0  0
   -4.1986   -6.8080   43.0471 H   0  0  0  0  0  0
   -9.0164   -2.2656   35.2318 H   0  0  0  0  0  0
   -8.2250   -3.8716   35.1808 H   0  0  0  0  0  0
   -7.5505   -2.5726   36.1993 H   0  0  0  0  0  0
  -10.3855   -7.7560   35.3330 H   0  0  0  0  0  0
  -10.2778   -7.9961   37.1047 H   0  0  0  0  0  0
   -8.7992   -8.0065   36.1076 H   0  0  0  0  0  0
   -4.1286   -9.8735   42.5809 H   0  0  0  0  0  0
   -4.9940  -11.0084   41.5436 H   0  0  0  0  0  0
   -3.6829   -8.3892   40.6037 H   0  0  0  0  0  0
   -3.0408  -10.0240   40.3782 H   0  0  0  0  0  0
   -6.5805   -9.6002   42.7952 H   0  0  0  0  0  0
   -6.7341   -9.2641   41.0633 H   0  0  0  0  0  0
   -6.8193   -2.5521   40.5131 H   0  0  0  0  0  0
   -5.8969   -3.0188   41.9167 H   0  0  0  0  0  0
   -5.2703   -8.7916   38.9508 H   0  0  0  0  0  0
  1  3  2  0  0  0
  1  5  1  0  0  0
  1 29  1  0  0  0
  2  4  2  0  0  0
  2  6  1  0  0  0
  2 30  1  0  0  0
  3  4  1  0  0  0
  3  7  1  0  0  0
  4 20  1  0  0  0
  5  6  2  0  0  0
  5 27  1  0  0  0
  6 28  1  0  0  0
  7 21  2  0  0  0
  7 22  1  0  0  0
  8 20  2  0  0  0
  8 21  1  0  0  0
  8 24  1  0  0  0
  9 13  1  0  0  0
  9 23  1  0  0  0
  9 25  2  0  0  0
 10 11  1  0  0  0
 10 12  1  0  0  0
 10 31  1  0  0  0
 10 32  1  0  0  0
 11 13  1  0  0  0
 11 33  1  0  0  0
 11 34  1  0  0  0
 12 26  1  0  0  0
 12 35  1  0  0  0
 12 36  1  0  0  0
 13 26  1  0  0  0
 13 37  1  0  0  0
 14 24  1  0  0  0
 14 38  1  0  0  0
 14 39  1  0  0  0
 14 40  1  0  0  0
 15 27  1  0  0  0
 15 41  1  0  0  0
 15 42  1  0  0  0
 15 43  1  0  0  0
 16 28  1  0  0  0
 16 44  1  0  0  0
 16 45  1  0  0  0
 16 46  1  0  0  0
 17 18  1  0  0  0
 17 19  1  0  0  0
 17 47  1  0  0  0
 17 48  1  0  0  0
 18 23  1  0  0  0
 18 49  1  0  0  0
 18 50  1  0  0  0
 19 24  1  0  0  0
 19 51  1  0  0  0
 19 52  1  0  0  0
 22 53  1  0  0  0
 22 54  1  0  0  0
 23 55  1  0  0  0
M  END
> <EON_Query>
60c

> <EON_ET_pb>
0.179

> <EON_ET_coul>
0.144

> <EON_ET_combo>
0.781

> <EON_ShapeTanimoto>
0.602

> <ROCS_ShapeQuery>
60c

> <ROCS_TanimotoCombo>
0.906

> <ROCS_ShapeTanimoto>
0.644

> <ROCS_ColorTanimoto>
0.262

> <ROCS_RefTversky>
0.77

> <ROCS_RefColorTversky>
0.453

> <ROCS_RefTverskyCombo>
1.224

> <ROCS_FitTversky>
0.797

> <ROCS_FitColorTversky>
0.384

> <ROCS_FitTverskyCombo>
1.181

> <ROCS_ColorScore>
-4.579

> <ROCS_Overlap>
1009.88

> <ROCS_Rank>
87

> <EON_Rank>
44

> <i_qp_#stars>
0

> <i_qp_#amine>
0

> <i_qp_#amidine>
0

> <i_qp_#acid>
0

> <i_qp_#amide>
1

> <i_qp_#rotor>
9

> <i_qp_#rtvFG>
0

> <i_qp_CNS>
-1

> <r_qp_mol_MW>
389.453

> <r_qp_dipole>
8.37186

> <r_qp_SASA>
648.916

> <r_qp_FOSA>
489.749

> <r_qp_FISA>
94.7101

> <r_qp_PISA>
64.4574

> <r_qp_WPSA>
0

> <r_qp_volume>
1200.52

> <r_qp_donorHB>
3

> <r_qp_accptHB>
8.7

> <r_qp_dip^2/V>
0.0583815

> <r_qp_ACxDN^.5/SA>
0.0232216

> <r_qp_glob>
0.841827

> <r_qp_QPpolrz>
36.7275

> <r_qp_QPlogPC16>
11.1751

> <r_qp_QPlogPoct>
21.3478

> <r_qp_QPlogPw>
15.361

> <r_qp_QPlogPo/w>
1.81519

> <r_qp_QPlogS>
-2.70678

> <r_qp_CIQPlogS>
-3.63863

> <r_qp_QPlogHERG>
-3.0244

> <r_qp_QPPCaco>
759.495

> <r_qp_QPlogBB>
-0.869883

> <r_qp_QPPMDCK>
630.989

> <r_qp_QPlogKp>
-2.17385

> <r_qp_IP(eV)>
8.27957

> <r_qp_EA(eV)>
0.907273

> <i_qp_#metab>
4

> <r_qp_QPlogKhsa>
-0.475096

> <i_qp_HumanOralAbsorption>
3

> <r_qp_PercentHumanOralAbsorption>
89.1299

> <r_qp_SAfluorine>
0

> <r_qp_SAamideO>
27.2914

> <r_qp_PSA>
103.345

> <i_qp_#NandO>
9

> <i_qp_RuleOfFive>
0

> <i_qp_RuleOfThree>
0

> <i_qp_#ringatoms>
15

> <i_qp_#in34>
0

> <i_qp_#in56>
15

> <i_qp_#noncon>
4

> <i_qp_#nonHatm>
28

> <r_qp_Jm>
5.12656

> <stars>
0

> <logP>
1.81519

> <Caco>
759.495

> <MDCK>
630.989

> <HumanOralAbsorption>
3

> <PercentHumanOralAbsorption>
89.1299

> <RuleOfFive>
0

> <base>
fda.sdf

$$$$
BindingDB_50017701_mol_1_4
                    3D
 Schrodinger Suite 2022-3.
 51 53  0  0  1  0            999 V2000
   -7.2957   -4.2318   39.5702 C   0  0  0  0  0  0
   -8.8306   -5.5662   37.6725 C   0  0  0  0  0  0
   -7.3772   -5.6336   39.6067 C   0  0  0  0  0  0
   -8.1337   -6.3185   38.6311 C   0  0  0  0  0  0
   -7.9766   -3.5056   38.5970 C   0  0  0  0  0  0
   -8.7466   -4.1726   37.6514 C   0  0  0  0  0  0
   -7.1679   -8.7027   36.6070 C   0  0  0  0  0  0
   -6.5913   -6.3665   40.6690 C   0  0  0  0  0  0
   -8.4551   -8.5985   37.3906 C   0  0  0  0  0  0
   -6.9269   -7.8469   40.8058 C   0  0  0  0  0  0
   -5.7909   -8.5381   38.6586 C   0  0  0  0  0  0
   -8.2553   -7.8308   38.7030 C   0  0  1  0  0  0
   -5.9998   -9.3149   37.3636 C   0  0  2  0  0  0
   -3.5327  -10.1648   34.4399 C   0  0  0  0  0  0
   -5.1814  -11.6185   35.6365 C   0  0  0  0  0  0
   -7.0728   -1.5435   39.5914 C   0  0  0  0  0  0
   -8.7488   -3.2125   35.4757 C   0  0  0  0  0  0
   -4.7239   -9.3179   36.5285 C   0  0  0  0  0  0
   -4.8245  -10.1789   35.2585 C   0  0  0  0  0  0
   -7.0874   -8.4834   39.4481 N   0  3  2  0  0  0
   -7.1103   -8.3778   35.4231 O   0  0  0  0  0  0
   -7.8841   -2.1471   38.5853 O   0  0  0  0  0  0
   -9.4304   -3.4764   36.7002 O   0  0  0  0  0  0
   -6.6957   -3.7053   40.3096 H   0  0  0  0  0  0
   -9.4592   -6.0528   36.9323 H   0  0  0  0  0  0
   -5.5244   -6.2558   40.4380 H   0  0  0  0  0  0
   -6.7569   -5.8860   41.6412 H   0  0  0  0  0  0
   -9.2318   -8.1616   36.7574 H   0  0  0  0  0  0
   -8.7777   -9.6254   37.6046 H   0  0  0  0  0  0
   -6.1485   -8.3948   41.3473 H   0  0  0  0  0  0
   -7.8772   -7.9922   41.3329 H   0  0  0  0  0  0
   -5.0501   -9.0325   39.2962 H   0  0  0  0  0  0
   -5.4693   -7.5110   38.4583 H   0  0  0  0  0  0
   -9.1360   -8.0339   39.3283 H   0  0  0  0  0  0
   -6.2701  -10.3538   37.5879 H   0  0  0  0  0  0
   -2.6889  -10.5486   35.0230 H   0  0  0  0  0  0
   -3.2844   -9.1531   34.1051 H   0  0  0  0  0  0
   -3.6344  -10.7865   33.5438 H   0  0  0  0  0  0
   -4.4073  -12.0673   36.2683 H   0  0  0  0  0  0
   -5.2915  -12.2403   34.7416 H   0  0  0  0  0  0
   -6.1290  -11.6538   36.1843 H   0  0  0  0  0  0
   -7.0857   -0.4577   39.4680 H   0  0  0  0  0  0
   -6.0494   -1.9180   39.5088 H   0  0  0  0  0  0
   -7.4747   -1.8010   40.5741 H   0  0  0  0  0  0
   -9.4054   -2.6514   34.8060 H   0  0  0  0  0  0
   -8.4562   -4.1567   35.0097 H   0  0  0  0  0  0
   -7.8553   -2.6202   35.6867 H   0  0  0  0  0  0
   -4.4678   -8.2849   36.2667 H   0  0  0  0  0  0
   -3.9093   -9.6968   37.1569 H   0  0  0  0  0  0
   -5.6334   -9.7864   34.6293 H   0  0  0  0  0  0
   -7.3569   -9.4325   39.6111 H   0  0  0  0  0  0
  1  3  2  0  0  0
  1  5  1  0  0  0
  1 24  1  0  0  0
  2  4  2  0  0  0
  2  6  1  0  0  0
  2 25  1  0  0  0
  3  4  1  0  0  0
  3  8  1  0  0  0
  4 12  1  0  0  0
  5  6  2  0  0  0
  5 22  1  0  0  0
  6 23  1  0  0  0
  7  9  1  0  0  0
  7 13  1  0  0  0
  7 21  2  0  0  0
  8 10  1  0  0  0
  8 26  1  0  0  0
  8 27  1  0  0  0
  9 12  1  0  0  0
  9 28  1  0  0  0
  9 29  1  0  0  0
 10 20  1  0  0  0
 10 30  1  0  0  0
 10 31  1  0  0  0
 11 13  1  0  0  0
 11 20  1  0  0  0
 11 32  1  0  0  0
 11 33  1  0  0  0
 12 20  1  0  0  0
 12 34  1  0  0  0
 13 18  1  0  0  0
 13 35  1  0  0  0
 14 19  1  0  0  0
 14 36  1  0  0  0
 14 37  1  0  0  0
 14 38  1  0  0  0
 15 19  1  0  0  0
 15 39  1  0  0  0
 15 40  1  0  0  0
 15 41  1  0  0  0
 16 22  1  0  0  0
 16 42  1  0  0  0
 16 43  1  0  0  0
 16 44  1  0  0  0
 17 23  1  0  0  0
 17 45  1  0  0  0
 17 46  1  0  0  0
 17 47  1  0  0  0
 18 19  1  0  0  0
 18 48  1  0  0  0
 18 49  1  0  0  0
 19 50  1  0  0  0
 20 51  1  0  0  0
M  CHG  1  20   1
M  END
> <EON_Query>
60c

> <EON_ET_pb>
0.082

> <EON_ET_coul>
0.022

> <EON_ET_combo>
0.77

> <EON_ShapeTanimoto>
0.689

> <ROCS_ShapeQuery>
60c

> <ROCS_TanimotoCombo>
0.801

> <ROCS_ShapeTanimoto>
0.615

> <ROCS_ColorTanimoto>
0.186

> <ROCS_RefTversky>
0.682

> <ROCS_RefColorTversky>
0.299

> <ROCS_RefTverskyCombo>
0.981

> <ROCS_FitTversky>
0.862

> <ROCS_FitColorTversky>
0.329

> <ROCS_FitTverskyCombo>
1.191

> <ROCS_ColorScore>
-2.979

> <ROCS_Overlap>
885.197

> <ROCS_Rank>
626

> <EON_Rank>
49

> <i_qp_#stars>
0

> <i_qp_#amine>
1

> <i_qp_#amidine>
0

> <i_qp_#acid>
0

> <i_qp_#amide>
0

> <i_qp_#rotor>
4

> <i_qp_#rtvFG>
1

> <i_qp_CNS>
2

> <r_qp_mol_MW>
317.427

> <r_qp_dipole>
4.64099

> <r_qp_SASA>
590.924

> <r_qp_FOSA>
518.472

> <r_qp_FISA>
28.5004

> <r_qp_PISA>
43.9508

> <r_qp_WPSA>
0

> <r_qp_volume>
1068.87

> <r_qp_donorHB>
0

> <r_qp_accptHB>
5.5

> <r_qp_dip^2/V>
0.020151

> <r_qp_ACxDN^.5/SA>
0

> <r_qp_glob>
0.855559

> <r_qp_QPpolrz>
34.4735

> <r_qp_QPlogPC16>
8.68479

> <r_qp_QPlogPoct>
13.7544

> <r_qp_QPlogPw>
6.16914

> <r_qp_QPlogPo/w>
2.91712

> <r_qp_QPlogS>
-2.6647

> <r_qp_CIQPlogS>
-2.66522

> <r_qp_QPlogHERG>
-4.80496

> <r_qp_QPPCaco>
1325.96

> <r_qp_QPlogBB>
0.461358

> <r_qp_QPPMDCK>
742.456

> <r_qp_QPlogKp>
-3.5685

> <r_qp_IP(eV)>
9.02575

> <r_qp_EA(eV)>
0.0118581

> <i_qp_#metab>
6

> <r_qp_QPlogKhsa>
0.0798362

> <i_qp_HumanOralAbsorption>
3

> <r_qp_PercentHumanOralAbsorption>
100

> <r_qp_SAfluorine>
0

> <r_qp_SAamideO>
0

> <r_qp_PSA>
44.5546

> <i_qp_#NandO>
4

> <i_qp_RuleOfFive>
0

> <i_qp_RuleOfThree>
0

> <i_qp_#ringatoms>
14

> <i_qp_#in34>
0

> <i_qp_#in56>
14

> <i_qp_#noncon>
6

> <i_qp_#nonHatm>
23

> <r_qp_Jm>
0.185543

> <stars>
0

> <logP>
2.91712

> <Caco>
1325.96

> <MDCK>
742.456

> <HumanOralAbsorption>
3

> <PercentHumanOralAbsorption>
100.0

> <RuleOfFive>
0

> <base>
fda.sdf

$$$$
Z138288808_10
                    3D
 Schrodinger Suite 2022-3.
 42 43  0  0  1  0            999 V2000
   -8.4681   -6.1852   38.7980 C   0  0  0  0  0  0
   -7.0560   -4.2991   39.3326 C   0  0  0  0  0  0
   -9.1480   -5.4101   37.8586 C   0  0  0  0  0  0
   -7.7359   -3.5239   38.3932 C   0  0  0  0  0  0
   -7.4221   -5.6298   39.5350 C   0  0  0  0  0  0
   -8.7819   -4.0794   37.6561 C   0  0  0  0  0  0
   -6.6947   -6.4595   40.5401 C   0  0  0  0  0  0
   -5.3069  -10.1488   35.0220 C   0  0  0  0  0  0
   -3.5567  -11.5345   36.1890 C   0  0  0  0  0  0
   -6.0507   -9.9892   36.3410 C   0  0  0  0  0  0
   -4.3096  -11.3681   37.5018 C   0  0  0  0  0  0
   -4.4962  -11.4494   34.9805 C   0  0  2  0  0  0
   -3.7114  -11.5572   33.6749 C   0  0  0  0  0  0
   -6.5812   -7.9584   40.3057 C   0  0  0  0  0  0
   -5.8669   -8.2859   38.9934 C   0  0  0  0  0  0
   -5.7321   -9.7894   38.8054 C   0  0  0  0  0  0
   -5.0677  -10.0630   37.4841 N   0  3  2  0  0  0
   -6.2060   -5.9147   41.5272 O   0  0  0  0  0  0
   -9.4347   -3.3351   36.7540 F   0  0  0  0  0  0
   -8.7615   -7.2209   38.9476 H   0  0  0  0  0  0
   -6.2420   -3.8562   39.9009 H   0  0  0  0  0  0
   -9.9621   -5.8424   37.2845 H   0  0  0  0  0  0
   -7.4513   -2.4876   38.2356 H   0  0  0  0  0  0
   -6.0297  -10.1333   34.1977 H   0  0  0  0  0  0
   -4.6405   -9.2887   34.8745 H   0  0  0  0  0  0
   -2.7815  -10.7608   36.1144 H   0  0  0  0  0  0
   -3.0387  -12.5011   36.1915 H   0  0  0  0  0  0
   -6.5407   -9.0114   36.3905 H   0  0  0  0  0  0
   -6.7943  -10.7804   36.4884 H   0  0  0  0  0  0
   -5.0352  -12.1737   37.6611 H   0  0  0  0  0  0
   -3.6111  -11.3321   38.3443 H   0  0  0  0  0  0
   -5.1955  -12.2951   35.0248 H   0  0  0  0  0  0
   -3.1421  -12.4853   33.6620 H   0  0  0  0  0  0
   -3.0251  -10.7167   33.5862 H   0  0  0  0  0  0
   -4.3979  -11.5481   32.8298 H   0  0  0  0  0  0
   -6.0204   -8.4000   41.1371 H   0  0  0  0  0  0
   -7.5908   -8.3839   40.2802 H   0  0  0  0  0  0
   -6.4226   -7.8527   38.1519 H   0  0  0  0  0  0
   -4.8743   -7.8181   38.9876 H   0  0  0  0  0  0
   -6.7055  -10.2881   38.7803 H   0  0  0  0  0  0
   -5.1040  -10.2446   39.5768 H   0  0  0  0  0  0
   -4.3956   -9.3370   37.3384 H   0  0  0  0  0  0
  1  3  2  0  0  0
  1  5  1  0  0  0
  1 20  1  0  0  0
  2  4  1  0  0  0
  2  5  2  0  0  0
  2 21  1  0  0  0
  3  6  1  0  0  0
  3 22  1  0  0  0
  4  6  2  0  0  0
  4 23  1  0  0  0
  5  7  1  0  0  0
  6 19  1  0  0  0
  7 14  1  0  0  0
  7 18  2  0  0  0
  8 10  1  0  0  0
  8 12  1  0  0  0
  8 24  1  0  0  0
  8 25  1  0  0  0
  9 11  1  0  0  0
  9 12  1  0  0  0
  9 26  1  0  0  0
  9 27  1  0  0  0
 10 17  1  0  0  0
 10 28  1  0  0  0
 10 29  1  0  0  0
 11 17  1  0  0  0
 11 30  1  0  0  0
 11 31  1  0  0  0
 12 13  1  0  0  0
 12 32  1  0  0  0
 13 33  1  0  0  0
 13 34  1  0  0  0
 13 35  1  0  0  0
 14 15  1  0  0  0
 14 36  1  0  0  0
 14 37  1  0  0  0
 15 16  1  0  0  0
 15 38  1  0  0  0
 15 39  1  0  0  0
 16 17  1  0  0  0
 16 40  1  0  0  0
 16 41  1  0  0  0
 17 42  1  0  0  0
M  CHG  1  17   1
M  END
> <EON_Query>
60c

> <EON_ET_pb>
0.169

> <EON_ET_coul>
0.104

> <EON_ET_combo>
0.75

> <EON_ShapeTanimoto>
0.581

> <ROCS_ShapeQuery>
60c

> <ROCS_TanimotoCombo>
0.919

> <ROCS_ShapeTanimoto>
0.673

> <ROCS_ColorTanimoto>
0.246

> <ROCS_RefTversky>
0.662

> <ROCS_RefColorTversky>
0.304

> <ROCS_RefTverskyCombo>
0.966

> <ROCS_FitTversky>
1.023

> <ROCS_FitColorTversky>
0.565

> <ROCS_FitTverskyCombo>
1.588

> <ROCS_ColorScore>
-2.965

> <ROCS_Overlap>
853.17

> <ROCS_Rank>
67

> <EON_Rank>
59

> <i_qp_#stars>
0

> <i_qp_#amine>
1

> <i_qp_#amidine>
0

> <i_qp_#acid>
0

> <i_qp_#amide>
0

> <i_qp_#rotor>
5

> <i_qp_#rtvFG>
0

> <i_qp_CNS>
1

> <r_qp_mol_MW>
263.354

> <r_qp_dipole>
3.83536

> <r_qp_SASA>
556.469

> <r_qp_FOSA>
321.188

> <r_qp_FISA>
47.2092

> <r_qp_PISA>
141.461

> <r_qp_WPSA>
46.6115

> <r_qp_volume>
957.509

> <r_qp_donorHB>
0

> <r_qp_accptHB>
4

> <r_qp_dip^2/V>
0.0153628

> <r_qp_ACxDN^.5/SA>
0

> <r_qp_glob>
0.844279

> <r_qp_QPpolrz>
30.306

> <r_qp_QPlogPC16>
8.1002

> <r_qp_QPlogPoct>
11.7996

> <r_qp_QPlogPw>
5.19496

> <r_qp_QPlogPo/w>
3.03657

> <r_qp_QPlogS>
-2.70726

> <r_qp_CIQPlogS>
-2.15754

> <r_qp_QPlogHERG>
-5.45251

> <r_qp_QPPCaco>
881.283

> <r_qp_QPlogBB>
0.33351

> <r_qp_QPPMDCK>
859.496

> <r_qp_QPlogKp>
-3.47379

> <r_qp_IP(eV)>
9.25217

> <r_qp_EA(eV)>
0.616852

> <i_qp_#metab>
2

> <r_qp_QPlogKhsa>
0.11535

> <i_qp_HumanOralAbsorption>
3

> <r_qp_PercentHumanOralAbsorption>
100

> <r_qp_SAfluorine>
46.6115

> <r_qp_SAamideO>
0

> <r_qp_PSA>
32.1041

> <i_qp_#NandO>
2

> <i_qp_RuleOfFive>
0

> <i_qp_RuleOfThree>
0

> <i_qp_#ringatoms>
12

> <i_qp_#in34>
0

> <i_qp_#in56>
12

> <i_qp_#noncon>
5

> <i_qp_#nonHatm>
19

> <r_qp_Jm>
0.128582

> <stars>
0

> <logP>
3.03657

> <Caco>
881.283

> <MDCK>
859.496

> <HumanOralAbsorption>
3

> <PercentHumanOralAbsorption>
100.0

> <RuleOfFive>
0

> <base>
fda.sdf

$$$$
s1023.cdx_162
                    3D
 Schrodinger Suite 2022-3.
 52 54  0  0  1  0            999 V2000
   -3.6668   -9.9342   32.5813 C   0  0  0  0  0  0
   -4.1271  -10.0673   33.6823 C   0  0  0  0  0  0
   -4.9687  -11.5511   36.9908 C   0  0  0  0  0  0
   -4.4347  -11.3962   35.7117 C   0  0  0  0  0  0
   -5.7430  -10.5348   37.5510 C   0  0  0  0  0  0
   -5.4487   -9.2090   35.5529 C   0  0  0  0  0  0
   -7.7826   -5.6818   37.5044 C   0  0  0  0  0  0
   -7.4244   -4.2516   39.8587 C   0  0  0  0  0  0
   -5.8513   -7.3639   40.6924 C   0  0  0  0  0  0
   -4.6746  -10.2253   34.9927 C   0  0  0  0  0  0
   -7.1179   -6.2649   38.5973 C   0  0  0  0  0  0
   -6.9305   -5.5523   39.7929 C   0  0  0  0  0  0
   -5.9829   -9.3639   36.8321 C   0  0  0  0  0  0
   -8.2660   -4.3805   37.5977 C   0  0  0  0  0  0
   -8.0865   -3.6649   38.7762 C   0  0  0  0  0  0
   -6.6109   -7.5609   38.5695 C   0  0  0  0  0  0
   -9.0008   -0.1862   34.6479 C   0  0  0  0  0  0
   -5.0696   -0.7950   37.4322 C   0  0  0  0  0  0
   -8.1730   -3.7076   35.3186 C   0  0  0  0  0  0
   -7.8322   -1.5120   39.7539 C   0  0  0  0  0  0
   -8.6880   -2.5128   34.5395 C   0  0  0  0  0  0
   -6.3982   -1.4079   39.2712 C   0  0  0  0  0  0
   -6.2965   -6.1001   40.8444 N   0  0  0  0  0  0
   -5.9712   -8.1398   39.6031 N   0  0  0  0  0  0
   -6.7621   -8.3415   37.3964 N   0  0  0  0  0  0
   -8.9088   -3.8221   36.5355 O   0  0  0  0  0  0
   -8.5515   -2.3892   38.8897 O   0  0  0  0  0  0
   -8.5329   -1.3409   35.3307 O   0  0  0  0  0  0
   -6.3922   -0.9133   37.9375 O   0  0  0  0  0  0
   -3.2585   -9.8158   31.6049 H   0  0  0  0  0  0
   -4.7820  -12.4627   37.5507 H   0  0  0  0  0  0
   -3.8333  -12.1973   35.2886 H   0  0  0  0  0  0
   -6.1543  -10.6660   38.5487 H   0  0  0  0  0  0
   -5.6385   -8.2937   34.9954 H   0  0  0  0  0  0
   -7.9318   -6.2266   36.5751 H   0  0  0  0  0  0
   -7.2935   -3.6754   40.7734 H   0  0  0  0  0  0
   -5.3414   -7.7995   41.5431 H   0  0  0  0  0  0
   -8.8668    0.6929   35.2830 H   0  0  0  0  0  0
  -10.0577   -0.3118   34.3996 H   0  0  0  0  0  0
   -8.4251   -0.0594   33.7280 H   0  0  0  0  0  0
   -5.1026   -0.4135   36.4088 H   0  0  0  0  0  0
   -4.5821   -1.7730   37.4523 H   0  0  0  0  0  0
   -4.5100   -0.0982   38.0606 H   0  0  0  0  0  0
   -7.1147   -3.5881   35.5702 H   0  0  0  0  0  0
   -8.3141   -4.6283   34.7450 H   0  0  0  0  0  0
   -8.3262   -0.5357   39.7363 H   0  0  0  0  0  0
   -7.8663   -1.9244   40.7665 H   0  0  0  0  0  0
   -9.7504   -2.6251   34.3013 H   0  0  0  0  0  0
   -8.1153   -2.3816   33.6168 H   0  0  0  0  0  0
   -5.9088   -2.3869   39.2739 H   0  0  0  0  0  0
   -5.8330   -0.7115   39.8975 H   0  0  0  0  0  0
   -7.5958   -8.1128   36.8682 H   0  0  0  0  0  0
  1  2  3  0  0  0
  1 30  1  0  0  0
  2 10  1  0  0  0
  3  4  2  0  0  0
  3  5  1  0  0  0
  3 31  1  0  0  0
  4 10  1  0  0  0
  4 32  1  0  0  0
  5 13  2  0  0  0
  5 33  1  0  0  0
  6 10  2  0  0  0
  6 13  1  0  0  0
  6 34  1  0  0  0
  7 11  2  0  0  0
  7 14  1  0  0  0
  7 35  1  0  0  0
  8 12  2  0  0  0
  8 15  1  0  0  0
  8 36  1  0  0  0
  9 23  2  0  0  0
  9 24  1  0  0  0
  9 37  1  0  0  0
 11 12  1  0  0  0
 11 16  1  0  0  0
 12 23  1  0  0  0
 13 25  1  0  0  0
 14 15  2  0  0  0
 14 26  1  0  0  0
 15 27  1  0  0  0
 16 24  2  0  0  0
 16 25  1  0  0  0
 17 28  1  0  0  0
 17 38  1  0  0  0
 17 39  1  0  0  0
 17 40  1  0  0  0
 18 29  1  0  0  0
 18 41  1  0  0  0
 18 42  1  0  0  0
 18 43  1  0  0  0
 19 21  1  0  0  0
 19 26  1  0  0  0
 19 44  1  0  0  0
 19 45  1  0  0  0
 20 22  1  0  0  0
 20 27  1  0  0  0
 20 46  1  0  0  0
 20 47  1  0  0  0
 21 28  1  0  0  0
 21 48  1  0  0  0
 21 49  1  0  0  0
 22 29  1  0  0  0
 22 50  1  0  0  0
 22 51  1  0  0  0
 25 52  1  0  0  0
M  END
> <EON_Query>
60c

> <EON_ET_pb>
0.242

> <EON_ET_coul>
0.258

> <EON_ET_combo>
0.749

> <EON_ShapeTanimoto>
0.507

> <ROCS_ShapeQuery>
60c

> <ROCS_TanimotoCombo>
0.755

> <ROCS_ShapeTanimoto>
0.506

> <ROCS_ColorTanimoto>
0.249

> <ROCS_RefTversky>
0.67

> <ROCS_RefColorTversky>
0.416

> <ROCS_RefTverskyCombo>
1.087

> <ROCS_FitTversky>
0.674

> <ROCS_FitColorTversky>
0.382

> <ROCS_FitTverskyCombo>
1.055

> <ROCS_ColorScore>
-4.187

> <ROCS_Overlap>
880.235

> <ROCS_Rank>
1079

> <EON_Rank>
62

> <i_qp_#stars>
0

> <i_qp_#amine>
0

> <i_qp_#amidine>
0

> <i_qp_#acid>
0

> <i_qp_#amide>
0

> <i_qp_#rotor>
11

> <i_qp_#rtvFG>
0

> <i_qp_CNS>
0

> <r_qp_mol_MW>
393.441

> <r_qp_dipole>
4.2502

> <r_qp_SASA>
699.523

> <r_qp_FOSA>
345.603

> <r_qp_FISA>
39.7342

> <r_qp_PISA>
314.186

> <r_qp_WPSA>
0

> <r_qp_volume>
1264.5

> <r_qp_donorHB>
1.5

> <r_qp_accptHB>
7.4

> <r_qp_dip^2/V>
0.0142857

> <r_qp_ACxDN^.5/SA>
0.0129561

> <r_qp_glob>
0.808428

> <r_qp_QPpolrz>
40.3885

> <r_qp_QPlogPC16>
12.8226

> <r_qp_QPlogPoct>
19.0941

> <r_qp_QPlogPw>
10.8693

> <r_qp_QPlogPo/w>
4.15866

> <r_qp_QPlogS>
-4.50042

> <r_qp_CIQPlogS>
-5.21116

> <r_qp_QPlogHERG>
-6.13019

> <r_qp_QPPCaco>
4160.07

> <r_qp_QPlogBB>
-0.504738

> <r_qp_QPPMDCK>
2309.53

> <r_qp_QPlogKp>
-0.0889084

> <r_qp_IP(eV)>
8.50415

> <r_qp_EA(eV)>
1.03495

> <i_qp_#metab>
6

> <r_qp_QPlogKhsa>
0.127087

> <i_qp_HumanOralAbsorption>
3

> <r_qp_PercentHumanOralAbsorption>
100

> <r_qp_SAfluorine>
0

> <r_qp_SAamideO>
0

> <r_qp_PSA>
65.2889

> <i_qp_#NandO>
7

> <i_qp_RuleOfFive>
0

> <i_qp_RuleOfThree>
0

> <i_qp_#ringatoms>
16

> <i_qp_#in34>
0

> <i_qp_#in56>
16

> <i_qp_#noncon>
0

> <i_qp_#nonHatm>
29

> <r_qp_Jm>
10.1287

> <stars>
0

> <logP>
4.15866

> <Caco>
4160.07

> <MDCK>
2309.53

> <HumanOralAbsorption>
3

> <PercentHumanOralAbsorption>
100.0

> <RuleOfFive>
0

> <base>
fda.sdf

$$$$
Erlotinib free Base.cdx_162
                    3D
 Schrodinger Suite 2022-3.
 52 54  0  0  1  0            999 V2000
   -3.6668   -9.9342   32.5813 C   0  0  0  0  0  0
   -4.1271  -10.0673   33.6823 C   0  0  0  0  0  0
   -4.9687  -11.5511   36.9908 C   0  0  0  0  0  0
   -4.4347  -11.3962   35.7117 C   0  0  0  0  0  0
   -5.7430  -10.5348   37.5510 C   0  0  0  0  0  0
   -5.4487   -9.2090   35.5529 C   0  0  0  0  0  0
   -7.7826   -5.6818   37.5044 C   0  0  0  0  0  0
   -7.4244   -4.2516   39.8587 C   0  0  0  0  0  0
   -5.8513   -7.3639   40.6924 C   0  0  0  0  0  0
   -4.6746  -10.2253   34.9927 C   0  0  0  0  0  0
   -7.1179   -6.2649   38.5973 C   0  0  0  0  0  0
   -6.9305   -5.5523   39.7929 C   0  0  0  0  0  0
   -5.9829   -9.3639   36.8321 C   0  0  0  0  0  0
   -8.2660   -4.3805   37.5977 C   0  0  0  0  0  0
   -8.0865   -3.6649   38.7762 C   0  0  0  0  0  0
   -6.6109   -7.5609   38.5695 C   0  0  0  0  0  0
   -9.0008   -0.1862   34.6479 C   0  0  0  0  0  0
   -5.0696   -0.7950   37.4322 C   0  0  0  0  0  0
   -8.1730   -3.7076   35.3186 C   0  0  0  0  0  0
   -7.8322   -1.5120   39.7539 C   0  0  0  0  0  0
   -8.6880   -2.5128   34.5395 C   0  0  0  0  0  0
   -6.3982   -1.4079   39.2712 C   0  0  0  0  0  0
   -6.2965   -6.1001   40.8444 N   0  0  0  0  0  0
   -5.9712   -8.1398   39.6031 N   0  0  0  0  0  0
   -6.7621   -8.3415   37.3964 N   0  0  0  0  0  0
   -8.9088   -3.8221   36.5355 O   0  0  0  0  0  0
   -8.5515   -2.3892   38.8897 O   0  0  0  0  0  0
   -8.5329   -1.3409   35.3307 O   0  0  0  0  0  0
   -6.3922   -0.9133   37.9375 O   0  0  0  0  0  0
   -3.2585   -9.8158   31.6049 H   0  0  0  0  0  0
   -4.7820  -12.4627   37.5507 H   0  0  0  0  0  0
   -3.8333  -12.1973   35.2886 H   0  0  0  0  0  0
   -6.1543  -10.6660   38.5487 H   0  0  0  0  0  0
   -5.6385   -8.2937   34.9954 H   0  0  0  0  0  0
   -7.9318   -6.2266   36.5751 H   0  0  0  0  0  0
   -7.2935   -3.6754   40.7734 H   0  0  0  0  0  0
   -5.3414   -7.7995   41.5431 H   0  0  0  0  0  0
   -8.8668    0.6929   35.2830 H   0  0  0  0  0  0
  -10.0577   -0.3118   34.3996 H   0  0  0  0  0  0
   -8.4251   -0.0594   33.7280 H   0  0  0  0  0  0
   -5.1026   -0.4135   36.4088 H   0  0  0  0  0  0
   -4.5821   -1.7730   37.4523 H   0  0  0  0  0  0
   -4.5100   -0.0982   38.0606 H   0  0  0  0  0  0
   -7.1147   -3.5881   35.5702 H   0  0  0  0  0  0
   -8.3141   -4.6283   34.7450 H   0  0  0  0  0  0
   -8.3262   -0.5357   39.7363 H   0  0  0  0  0  0
   -7.8663   -1.9244   40.7665 H   0  0  0  0  0  0
   -9.7504   -2.6251   34.3013 H   0  0  0  0  0  0
   -8.1153   -2.3816   33.6168 H   0  0  0  0  0  0
   -5.9088   -2.3869   39.2739 H   0  0  0  0  0  0
   -5.8330   -0.7115   39.8975 H   0  0  0  0  0  0
   -7.5958   -8.1128   36.8682 H   0  0  0  0  0  0
  1  2  3  0  0  0
  1 30  1  0  0  0
  2 10  1  0  0  0
  3  4  2  0  0  0
  3  5  1  0  0  0
  3 31  1  0  0  0
  4 10  1  0  0  0
  4 32  1  0  0  0
  5 13  2  0  0  0
  5 33  1  0  0  0
  6 10  2  0  0  0
  6 13  1  0  0  0
  6 34  1  0  0  0
  7 11  2  0  0  0
  7 14  1  0  0  0
  7 35  1  0  0  0
  8 12  2  0  0  0
  8 15  1  0  0  0
  8 36  1  0  0  0
  9 23  2  0  0  0
  9 24  1  0  0  0
  9 37  1  0  0  0
 11 12  1  0  0  0
 11 16  1  0  0  0
 12 23  1  0  0  0
 13 25  1  0  0  0
 14 15  2  0  0  0
 14 26  1  0  0  0
 15 27  1  0  0  0
 16 24  2  0  0  0
 16 25  1  0  0  0
 17 28  1  0  0  0
 17 38  1  0  0  0
 17 39  1  0  0  0
 17 40  1  0  0  0
 18 29  1  0  0  0
 18 41  1  0  0  0
 18 42  1  0  0  0
 18 43  1  0  0  0
 19 21  1  0  0  0
 19 26  1  0  0  0
 19 44  1  0  0  0
 19 45  1  0  0  0
 20 22  1  0  0  0
 20 27  1  0  0  0
 20 46  1  0  0  0
 20 47  1  0  0  0
 21 28  1  0  0  0
 21 48  1  0  0  0
 21 49  1  0  0  0
 22 29  1  0  0  0
 22 50  1  0  0  0
 22 51  1  0  0  0
 25 52  1  0  0  0
M  END
> <EON_Query>
60c

> <EON_ET_pb>
0.242

> <EON_ET_coul>
0.258

> <EON_ET_combo>
0.749

> <EON_ShapeTanimoto>
0.507

> <ROCS_ShapeQuery>
60c

> <ROCS_TanimotoCombo>
0.755

> <ROCS_ShapeTanimoto>
0.506

> <ROCS_ColorTanimoto>
0.249

> <ROCS_RefTversky>
0.67

> <ROCS_RefColorTversky>
0.416

> <ROCS_RefTverskyCombo>
1.087

> <ROCS_FitTversky>
0.674

> <ROCS_FitColorTversky>
0.382

> <ROCS_FitTverskyCombo>
1.055

> <ROCS_ColorScore>
-4.187

> <ROCS_Overlap>
880.235

> <ROCS_Rank>
1080

> <EON_Rank>
63

> <i_qp_#stars>
0

> <i_qp_#amine>
0

> <i_qp_#amidine>
0

> <i_qp_#acid>
0

> <i_qp_#amide>
0

> <i_qp_#rotor>
11

> <i_qp_#rtvFG>
0

> <i_qp_CNS>
0

> <r_qp_mol_MW>
393.441

> <r_qp_dipole>
4.2502

> <r_qp_SASA>
699.523

> <r_qp_FOSA>
345.603

> <r_qp_FISA>
39.7342

> <r_qp_PISA>
314.186

> <r_qp_WPSA>
0

> <r_qp_volume>
1264.5

> <r_qp_donorHB>
1.5

> <r_qp_accptHB>
7.4

> <r_qp_dip^2/V>
0.0142857

> <r_qp_ACxDN^.5/SA>
0.0129561

> <r_qp_glob>
0.808428

> <r_qp_QPpolrz>
40.3885

> <r_qp_QPlogPC16>
12.8226

> <r_qp_QPlogPoct>
19.0941

> <r_qp_QPlogPw>
10.8693

> <r_qp_QPlogPo/w>
4.15866

> <r_qp_QPlogS>
-4.50042

> <r_qp_CIQPlogS>
-5.21116

> <r_qp_QPlogHERG>
-6.13019

> <r_qp_QPPCaco>
4160.07

> <r_qp_QPlogBB>
-0.504738

> <r_qp_QPPMDCK>
2309.53

> <r_qp_QPlogKp>
-0.0889084

> <r_qp_IP(eV)>
8.50415

> <r_qp_EA(eV)>
1.03495

> <i_qp_#metab>
6

> <r_qp_QPlogKhsa>
0.127087

> <i_qp_HumanOralAbsorption>
3

> <r_qp_PercentHumanOralAbsorption>
100

> <r_qp_SAfluorine>
0

> <r_qp_SAamideO>
0

> <r_qp_PSA>
65.2889

> <i_qp_#NandO>
7

> <i_qp_RuleOfFive>
0

> <i_qp_RuleOfThree>
0

> <i_qp_#ringatoms>
16

> <i_qp_#in34>
0

> <i_qp_#in56>
16

> <i_qp_#noncon>
0

> <i_qp_#nonHatm>
29

> <r_qp_Jm>
10.1287

> <stars>
0

> <logP>
4.15866

> <Caco>
4160.07

> <MDCK>
2309.53

> <HumanOralAbsorption>
3

> <PercentHumanOralAbsorption>
100.0

> <RuleOfFive>
0

> <base>
fda.sdf

$$$$