60c
                    3D
 Schrodinger Suite 2022-3.
 49 51  0  0  1  0            999 V2000
   -6.6000   -6.5030   40.5530 C   0  0  0  0  0  0
   -7.3720   -5.6990   39.5000 C   0  0  0  0  0  0
   -7.2940   -4.3180   39.5160 C   0  0  0  0  0  0
   -7.9870   -3.5740   38.5800 C   0  0  0  0  0  0
   -7.0590   -1.6420   39.5250 C   0  0  0  0  0  0
   -8.7550   -4.2020   37.6340 C   0  0  0  0  0  0
   -9.1320   -3.5010   35.3860 C   0  0  0  0  0  0
   -8.8380   -5.6030   37.6010 C   0  0  0  0  0  0
   -9.2700   -7.6300   36.4230 C   0  0  0  0  0  0
   -8.1430   -6.3420   38.5490 C   0  0  0  0  0  0
   -6.3560   -8.0130   40.3740 C   0  0  0  0  0  0
   -5.7250   -9.7430   38.9530 C   0  0  0  0  0  0
   -5.2640  -10.2100   37.5620 C   0  0  0  0  0  0
   -5.2050  -11.5640   37.2740 C   0  0  0  0  0  0
   -4.7900  -11.9850   36.0190 C   0  0  0  0  0  0
   -4.4400  -11.0450   35.0450 C   0  0  0  0  0  0
   -3.9770  -11.4750   33.6560 C   0  0  0  0  0  0
   -4.5070   -9.6950   35.3270 C   0  0  0  0  0  0
   -4.9180   -9.2780   36.5850 C   0  0  0  0  0  0
   -5.8950  -10.6760   39.9730 C   0  0  0  0  0  0
   -6.3150  -10.2610   41.2310 C   0  0  0  0  0  0
   -6.5500   -8.8980   41.4300 C   0  0  0  0  0  0
   -6.9630   -8.4620   42.6510 F   0  0  0  0  0  0
   -5.9590   -8.4520   39.1870 N   0  0  0  0  0  0
   -6.1920   -5.9220   41.5100 O   0  0  0  0  0  0
   -7.9250   -2.1790   38.5650 O   0  0  0  0  0  0
   -9.4260   -3.3490   36.7470 O   0  0  0  0  0  0
   -9.6230   -6.2880   36.6530 O   0  0  0  0  0  0
   -4.7400  -13.3640   35.7560 O   0  0  0  0  0  0
   -6.6909   -3.8198   40.2606 H   0  0  0  0  0  0
   -7.0642   -0.5545   39.4519 H   0  0  0  0  0  0
   -7.3889   -1.9404   40.5201 H   0  0  0  0  0  0
   -6.0487   -2.0125   39.3515 H   0  0  0  0  0  0
   -9.7141   -2.7850   34.8058 H   0  0  0  0  0  0
   -8.0693   -3.3229   35.2212 H   0  0  0  0  0  0
   -9.3834   -4.5135   35.0703 H   0  0  0  0  0  0
   -9.9386   -8.0593   35.6769 H   0  0  0  0  0  0
   -8.2430   -7.6792   36.0611 H   0  0  0  0  0  0
   -9.3544   -8.1929   37.3526 H   0  0  0  0  0  0
   -8.2051   -7.4202   38.5431 H   0  0  0  0  0  0
   -5.4817  -12.2885   38.0256 H   0  0  0  0  0  0
   -3.7554  -10.5919   33.0567 H   0  0  0  0  0  0
   -3.0798  -12.0875   33.7450 H   0  0  0  0  0  0
   -4.7646  -12.0532   33.1727 H   0  0  0  0  0  0
   -4.2404   -8.9715   34.5708 H   0  0  0  0  0  0
   -4.9687   -8.2217   36.8043 H   0  0  0  0  0  0
   -5.7004  -11.7218   39.7862 H   0  0  0  0  0  0
   -6.4508  -10.9848   42.0210 H   0  0  0  0  0  0
   -4.4379  -13.5079   34.8562 H   0  0  0  0  0  0
  1  2  1  0  0  0
  1 11  1  0  0  0
  1 25  2  0  0  0
  2  3  2  0  0  0
  2 10  1  0  0  0
  3  4  1  0  0  0
  3 30  1  0  0  0
  4  6  2  0  0  0
  4 26  1  0  0  0
  5 26  1  0  0  0
  5 31  1  0  0  0
  5 32  1  0  0  0
  5 33  1  0  0  0
  6  8  1  0  0  0
  6 27  1  0  0  0
  7 27  1  0  0  0
  7 34  1  0  0  0
  7 35  1  0  0  0
  7 36  1  0  0  0
  8 10  2  0  0  0
  8 28  1  0  0  0
  9 28  1  0  0  0
  9 37  1  0  0  0
  9 38  1  0  0  0
  9 39  1  0  0  0
 10 40  1  0  0  0
 11 22  2  0  0  0
 11 24  1  0  0  0
 12 13  1  0  0  0
 12 20  1  0  0  0
 12 24  2  0  0  0
 13 14  2  0  0  0
 13 19  1  0  0  0
 14 15  1  0  0  0
 14 41  1  0  0  0
 15 16  2  0  0  0
 15 29  1  0  0  0
 16 17  1  0  0  0
 16 18  1  0  0  0
 17 42  1  0  0  0
 17 43  1  0  0  0
 17 44  1  0  0  0
 18 19  2  0  0  0
 18 45  1  0  0  0
 19 46  1  0  0  0
 20 21  2  0  0  0
 20 47  1  0  0  0
 21 22  1  0  0  0
 21 48  1  0  0  0
 22 23  1  0  0  0
 29 49  1  0  0  0
M  END
> <i_qp_#stars>
0

> <i_qp_#amine>
0

> <i_qp_#amidine>
0

> <i_qp_#acid>
0

> <i_qp_#amide>
0

> <i_qp_#rotor>
7

> <i_qp_#rtvFG>
0

> <i_qp_CNS>
0

> <r_qp_mol_MW>
397.402

> <r_qp_dipole>
7.41884

> <r_qp_SASA>
657.634

> <r_qp_FOSA>
322.144

> <r_qp_FISA>
87.734

> <r_qp_PISA>
210.11

> <r_qp_WPSA>
37.6461

> <r_qp_volume>
1187.67

> <r_qp_donorHB>
1

> <r_qp_accptHB>
6

> <r_qp_dip^2/V>
0.0463421

> <r_qp_ACxDN^.5/SA>
0.00912362

> <r_qp_glob>
0.82473

> <r_qp_QPpolrz>
38.8884

> <r_qp_QPlogPC16>
11.3327

> <r_qp_QPlogPoct>
17.9582

> <r_qp_QPlogPw>
9.17133

> <r_qp_QPlogPo/w>
4.00874

> <r_qp_QPlogS>
-5.07266

> <r_qp_CIQPlogS>
-5.97276

> <r_qp_QPlogHERG>
-5.37006

> <r_qp_QPPCaco>
1458.54

> <r_qp_QPlogBB>
-0.625918

> <r_qp_QPPMDCK>
1196.06

> <r_qp_QPlogKp>
-1.72421

> <r_qp_IP(eV)>
9.32957

> <r_qp_EA(eV)>
1.02524

> <i_qp_#metab>
5

> <r_qp_QPlogKhsa>
0.374562

> <i_qp_HumanOralAbsorption>
3

> <r_qp_PercentHumanOralAbsorption>
100

> <r_qp_SAfluorine>
37.6461

> <r_qp_SAamideO>
0

> <r_qp_PSA>
77.7839

> <i_qp_#NandO>
6

> <i_qp_RuleOfFive>
0

> <i_qp_RuleOfThree>
0

> <i_qp_#ringatoms>
18

> <i_qp_#in34>
0

> <i_qp_#in56>
18

> <i_qp_#noncon>
0

> <i_qp_#nonHatm>
29

> <r_qp_Jm>
0.0634395

> <stars>
0

> <logP>
4.00874

> <Caco>
1458.54

> <MDCK>
1196.06

> <HumanOralAbsorption>
3

> <PercentHumanOralAbsorption>
100.0

> <RuleOfFive>
0

> <base>
fda.sdf

$$$$
60c
                    3D
 Schrodinger Suite 2022-3.
 49 51  0  0  1  0            999 V2000
   -6.6000   -6.5030   40.5530 C   0  0  0  0  0  0
   -7.3720   -5.6990   39.5000 C   0  0  0  0  0  0
   -7.2940   -4.3180   39.5160 C   0  0  0  0  0  0
   -7.9870   -3.5740   38.5800 C   0  0  0  0  0  0
   -7.0590   -1.6420   39.5250 C   0  0  0  0  0  0
   -8.7550   -4.2020   37.6340 C   0  0  0  0  0  0
   -9.1320   -3.5010   35.3860 C   0  0  0  0  0  0
   -8.8380   -5.6030   37.6010 C   0  0  0  0  0  0
   -9.2700   -7.6300   36.4230 C   0  0  0  0  0  0
   -8.1430   -6.3420   38.5490 C   0  0  0  0  0  0
   -6.3560   -8.0130   40.3740 C   0  0  0  0  0  0
   -5.7250   -9.7430   38.9530 C   0  0  0  0  0  0
   -5.2640  -10.2100   37.5620 C   0  0  0  0  0  0
   -5.2050  -11.5640   37.2740 C   0  0  0  0  0  0
   -4.7900  -11.9850   36.0190 C   0  0  0  0  0  0
   -4.4400  -11.0450   35.0450 C   0  0  0  0  0  0
   -3.9770  -11.4750   33.6560 C   0  0  0  0  0  0
   -4.5070   -9.6950   35.3270 C   0  0  0  0  0  0
   -4.9180   -9.2780   36.5850 C   0  0  0  0  0  0
   -5.8950  -10.6760   39.9730 C   0  0  0  0  0  0
   -6.3150  -10.2610   41.2310 C   0  0  0  0  0  0
   -6.5500   -8.8980   41.4300 C   0  0  0  0  0  0
   -6.9630   -8.4620   42.6510 F   0  0  0  0  0  0
   -5.9590   -8.4520   39.1870 N   0  0  0  0  0  0
   -6.1920   -5.9220   41.5100 O   0  0  0  0  0  0
   -7.9250   -2.1790   38.5650 O   0  0  0  0  0  0
   -9.4260   -3.3490   36.7470 O   0  0  0  0  0  0
   -9.6230   -6.2880   36.6530 O   0  0  0  0  0  0
   -4.7400  -13.3640   35.7560 O   0  0  0  0  0  0
   -6.6909   -3.8198   40.2606 H   0  0  0  0  0  0
   -7.0642   -0.5545   39.4519 H   0  0  0  0  0  0
   -7.3889   -1.9404   40.5201 H   0  0  0  0  0  0
   -6.0487   -2.0125   39.3515 H   0  0  0  0  0  0
   -9.7141   -2.7850   34.8058 H   0  0  0  0  0  0
   -8.0693   -3.3229   35.2212 H   0  0  0  0  0  0
   -9.3834   -4.5135   35.0703 H   0  0  0  0  0  0
   -9.9386   -8.0593   35.6769 H   0  0  0  0  0  0
   -8.2430   -7.6792   36.0611 H   0  0  0  0  0  0
   -9.3544   -8.1929   37.3526 H   0  0  0  0  0  0
   -8.2051   -7.4202   38.5431 H   0  0  0  0  0  0
   -5.4817  -12.2885   38.0256 H   0  0  0  0  0  0
   -3.7554  -10.5919   33.0567 H   0  0  0  0  0  0
   -3.0798  -12.0875   33.7450 H   0  0  0  0  0  0
   -4.7646  -12.0532   33.1727 H   0  0  0  0  0  0
   -4.2404   -8.9715   34.5708 H   0  0  0  0  0  0
   -4.9687   -8.2217   36.8043 H   0  0  0  0  0  0
   -5.7004  -11.7218   39.7862 H   0  0  0  0  0  0
   -6.4508  -10.9848   42.0210 H   0  0  0  0  0  0
   -4.4379  -13.5079   34.8562 H   0  0  0  0  0  0
  1  2  1  0  0  0
  1 11  1  0  0  0
  1 25  2  0  0  0
  2  3  2  0  0  0
  2 10  1  0  0  0
  3  4  1  0  0  0
  3 30  1  0  0  0
  4  6  2  0  0  0
  4 26  1  0  0  0
  5 26  1  0  0  0
  5 31  1  0  0  0
  5 32  1  0  0  0
  5 33  1  0  0  0
  6  8  1  0  0  0
  6 27  1  0  0  0
  7 27  1  0  0  0
  7 34  1  0  0  0
  7 35  1  0  0  0
  7 36  1  0  0  0
  8 10  2  0  0  0
  8 28  1  0  0  0
  9 28  1  0  0  0
  9 37  1  0  0  0
  9 38  1  0  0  0
  9 39  1  0  0  0
 10 40  1  0  0  0
 11 22  2  0  0  0
 11 24  1  0  0  0
 12 13  1  0  0  0
 12 20  1  0  0  0
 12 24  2  0  0  0
 13 14  2  0  0  0
 13 19  1  0  0  0
 14 15  1  0  0  0
 14 41  1  0  0  0
 15 16  2  0  0  0
 15 29  1  0  0  0
 16 17  1  0  0  0
 16 18  1  0  0  0
 17 42  1  0  0  0
 17 43  1  0  0  0
 17 44  1  0  0  0
 18 19  2  0  0  0
 18 45  1  0  0  0
 19 46  1  0  0  0
 20 21  2  0  0  0
 20 47  1  0  0  0
 21 22  1  0  0  0
 21 48  1  0  0  0
 22 23  1  0  0  0
 29 49  1  0  0  0
M  END
> <EON_Query>
60c

> <EON_ET_pb>
1

> <EON_ET_coul>
1

> <EON_ET_combo>
2

> <EON_ShapeTanimoto>
1

> <EON_Rank>
1

> <i_qp_#stars>
0

> <i_qp_#amine>
0

> <i_qp_#amidine>
0

> <i_qp_#acid>
0

> <i_qp_#amide>
0

> <i_qp_#rotor>
7

> <i_qp_#rtvFG>
0

> <i_qp_CNS>
0

> <r_qp_mol_MW>
397.402

> <r_qp_dipole>
7.41884

> <r_qp_SASA>
657.634

> <r_qp_FOSA>
322.144

> <r_qp_FISA>
87.734

> <r_qp_PISA>
210.11

> <r_qp_WPSA>
37.6461

> <r_qp_volume>
1187.67

> <r_qp_donorHB>
1

> <r_qp_accptHB>
6

> <r_qp_dip^2/V>
0.0463421

> <r_qp_ACxDN^.5/SA>
0.00912362

> <r_qp_glob>
0.82473

> <r_qp_QPpolrz>
38.8884

> <r_qp_QPlogPC16>
11.3327

> <r_qp_QPlogPoct>
17.9582

> <r_qp_QPlogPw>
9.17133

> <r_qp_QPlogPo/w>
4.00874

> <r_qp_QPlogS>
-5.07266

> <r_qp_CIQPlogS>
-5.97276

> <r_qp_QPlogHERG>
-5.37006

> <r_qp_QPPCaco>
1458.54

> <r_qp_QPlogBB>
-0.625918

> <r_qp_QPPMDCK>
1196.06

> <r_qp_QPlogKp>
-1.72421

> <r_qp_IP(eV)>
9.32957

> <r_qp_EA(eV)>
1.02524

> <i_qp_#metab>
5

> <r_qp_QPlogKhsa>
0.374562

> <i_qp_HumanOralAbsorption>
3

> <r_qp_PercentHumanOralAbsorption>
100

> <r_qp_SAfluorine>
37.6461

> <r_qp_SAamideO>
0

> <r_qp_PSA>
77.7839

> <i_qp_#NandO>
6

> <i_qp_RuleOfFive>
0

> <i_qp_RuleOfThree>
0

> <i_qp_#ringatoms>
18

> <i_qp_#in34>
0

> <i_qp_#in56>
18

> <i_qp_#noncon>
0

> <i_qp_#nonHatm>
29

> <r_qp_Jm>
0.0634395

> <stars>
0

> <logP>
4.00874

> <Caco>
1458.54

> <MDCK>
1196.06

> <HumanOralAbsorption>
3

> <PercentHumanOralAbsorption>
100.0

> <RuleOfFive>
0

> <base>
fda.sdf

$$$$
S7668-Picropodophyllin (PPP).cdx_3
                    3D
 Schrodinger Suite 2022-3.
 52 56  0  0  1  0            999 V2000
   -5.2364   -8.3838   37.5296 C   0  0  0  0  0  0
   -6.0310  -10.9605   38.3429 C   0  0  0  0  0  0
   -8.1039   -6.7379   38.0084 C   0  0  0  0  0  0
   -6.8875   -4.9342   39.0588 C   0  0  0  0  0  0
   -5.9277   -8.5487   38.7479 C   0  0  0  0  0  0
   -6.3087   -9.8490   39.1603 C   0  0  0  0  0  0
   -7.0955   -6.3000   38.8667 C   0  0  0  0  0  0
   -4.9741   -9.4980   36.7605 C   0  0  0  0  0  0
   -5.3639  -10.7522   37.1551 C   0  0  0  0  0  0
   -8.9045   -5.8101   37.3421 C   0  0  0  0  0  0
   -7.6881   -4.0062   38.3926 C   0  0  0  0  0  0
   -8.6965   -4.4442   37.5342 C   0  0  0  0  0  0
   -5.9764   -6.8731   42.0488 C   0  0  0  0  0  0
   -5.3360   -9.0702   42.1041 C   0  0  0  0  0  0
   -4.3539  -10.9158   35.2498 C   0  0  0  0  0  0
   -6.2189   -7.3159   39.5967 C   0  0  1  0  0  0
   -7.0387  -10.0683   40.4564 C   0  0  1  0  0  0
   -6.8126   -7.5809   41.0041 C   0  0  1  0  0  0
   -6.7255   -9.0128   41.5065 C   0  0  2  0  0  0
  -10.0320   -7.6627   36.3663 C   0  0  0  0  0  0
   -6.4237   -2.3125   39.4826 C   0  0  0  0  0  0
   -9.0299   -3.0956   35.6040 C   0  0  0  0  0  0
   -6.0024   -5.6749   42.2861 O   0  0  0  0  0  0
   -4.3276   -9.5084   35.5632 O   0  0  0  0  0  0
   -5.0137  -11.7112   36.2558 O   0  0  0  0  0  0
   -5.1445   -7.7672   42.6682 O   0  0  0  0  0  0
   -8.4348  -10.0443   40.1612 O   0  0  0  0  0  0
   -9.8860   -6.2510   36.5065 O   0  0  0  0  0  0
   -7.4746   -2.6751   38.5892 O   0  0  0  0  0  0
   -9.4791   -3.5373   36.8830 O   0  0  0  0  0  0
   -4.9157   -7.4015   37.1960 H   0  0  0  0  0  0
   -6.3300  -11.9612   38.6390 H   0  0  0  0  0  0
   -8.2682   -7.8021   37.8571 H   0  0  0  0  0  0
   -6.1020   -4.5902   39.7274 H   0  0  0  0  0  0
   -5.2679   -9.8204   42.8975 H   0  0  0  0  0  0
   -4.5406   -9.2538   41.3750 H   0  0  0  0  0  0
   -4.8752  -11.0535   34.2956 H   0  0  0  0  0  0
   -3.3226  -11.2709   35.1420 H   0  0  0  0  0  0
   -5.2344   -6.8022   39.7275 H   0  0  0  0  0  0
   -6.7991  -11.0616   40.8589 H   0  0  0  0  0  0
   -7.8497   -7.2339   41.0969 H   0  0  0  0  0  0
   -7.4457   -9.1126   42.3328 H   0  0  0  0  0  0
  -10.8486   -7.8783   35.6729 H   0  0  0  0  0  0
  -10.2419   -8.1070   37.3426 H   0  0  0  0  0  0
   -9.1021   -8.0787   35.9714 H   0  0  0  0  0  0
   -6.3606   -1.2236   39.5491 H   0  0  0  0  0  0
   -5.4777   -2.7214   39.1190 H   0  0  0  0  0  0
   -6.6400   -2.7237   40.4715 H   0  0  0  0  0  0
   -9.7435   -2.3761   35.1949 H   0  0  0  0  0  0
   -8.9362   -3.9535   34.9335 H   0  0  0  0  0  0
   -8.0551   -2.6150   35.7161 H   0  0  0  0  0  0
   -8.8951  -10.1864   41.0021 H   0  0  0  0  0  0
  1  5  2  0  0  0
  1  8  1  0  0  0
  1 31  1  0  0  0
  2  6  2  0  0  0
  2  9  1  0  0  0
  2 32  1  0  0  0
  3  7  2  0  0  0
  3 10  1  0  0  0
  3 33  1  0  0  0
  4  7  1  0  0  0
  4 11  2  0  0  0
  4 34  1  0  0  0
  5  6  1  0  0  0
  5 16  1  0  0  0
  6 17  1  0  0  0
  7 16  1  0  0  0
  8  9  2  0  0  0
  8 24  1  0  0  0
  9 25  1  0  0  0
 10 12  2  0  0  0
 10 28  1  0  0  0
 11 12  1  0  0  0
 11 29  1  0  0  0
 12 30  1  0  0  0
 13 18  1  0  0  0
 13 23  2  0  0  0
 13 26  1  0  0  0
 14 19  1  0  0  0
 14 26  1  0  0  0
 14 35  1  0  0  0
 14 36  1  0  0  0
 15 24  1  0  0  0
 15 25  1  0  0  0
 15 37  1  0  0  0
 15 38  1  0  0  0
 16 18  1  0  0  0
 16 39  1  0  0  0
 17 19  1  0  0  0
 17 27  1  0  0  0
 17 40  1  0  0  0
 18 19  1  0  0  0
 18 41  1  0  0  0
 19 42  1  0  0  0
 20 28  1  0  0  0
 20 43  1  0  0  0
 20 44  1  0  0  0
 20 45  1  0  0  0
 21 29  1  0  0  0
 21 46  1  0  0  0
 21 47  1  0  0  0
 21 48  1  0  0  0
 22 30  1  0  0  0
 22 49  1  0  0  0
 22 50  1  0  0  0
 22 51  1  0  0  0
 27 52  1  0  0  0
M  END
> <EON_Query>
60c

> <EON_ET_pb>
0.289

> <EON_ET_coul>
0.401

> <EON_ET_combo>
0.984

> <EON_ShapeTanimoto>
0.695

> <ROCS_ShapeQuery>
60c

> <ROCS_TanimotoCombo>
1.054

> <ROCS_ShapeTanimoto>
0.753

> <ROCS_ColorTanimoto>
0.301

> <ROCS_RefTversky>
0.886

> <ROCS_RefColorTversky>
0.526

> <ROCS_RefTverskyCombo>
1.413

> <ROCS_FitTversky>
0.834

> <ROCS_FitColorTversky>
0.414

> <ROCS_FitTverskyCombo>
1.247

> <ROCS_ColorScore>
-5.344

> <ROCS_Overlap>
1168.04

> <ROCS_Rank>
6

> <EON_Rank>
5

> <i_qp_#stars>
0

> <i_qp_#amine>
0

> <i_qp_#amidine>
0

> <i_qp_#acid>
0

> <i_qp_#amide>
0

> <i_qp_#rotor>
4

> <i_qp_#rtvFG>
2

> <i_qp_CNS>
-1

> <r_qp_mol_MW>
414.411

> <r_qp_dipole>
6.87879

> <r_qp_SASA>
570.018

> <r_qp_FOSA>
411.087

> <r_qp_FISA>
70.0212

> <r_qp_PISA>
88.9098

> <r_qp_WPSA>
0

> <r_qp_volume>
1113.28

> <r_qp_donorHB>
1

> <r_qp_accptHB>
8.45

> <r_qp_dip^2/V>
0.0425029

> <r_qp_ACxDN^.5/SA>
0.0148241

> <r_qp_glob>
0.911338

> <r_qp_QPpolrz>
36.6802

> <r_qp_QPlogPC16>
10.1102

> <r_qp_QPlogPoct>
18.3585

> <r_qp_QPlogPw>
11.0773

> <r_qp_QPlogPo/w>
2.42019

> <r_qp_QPlogS>
-3.02364

> <r_qp_CIQPlogS>
-5.1785

> <r_qp_QPlogHERG>
-3.39064

> <r_qp_QPPCaco>
2147.28

> <r_qp_QPlogBB>
-0.239639

> <r_qp_QPPMDCK>
1130.01

> <r_qp_QPlogKp>
-2.11275

> <r_qp_IP(eV)>
9.03037

> <r_qp_EA(eV)>
0.270002

> <i_qp_#metab>
6

> <r_qp_QPlogKhsa>
-0.12204

> <i_qp_HumanOralAbsorption>
3

> <r_qp_PercentHumanOralAbsorption>
100

> <r_qp_SAfluorine>
0

> <r_qp_SAamideO>
0

> <r_qp_PSA>
103.874

> <i_qp_#NandO>
8

> <i_qp_RuleOfFive>
0

> <i_qp_RuleOfThree>
0

> <i_qp_#ringatoms>
22

> <i_qp_#in34>
0

> <i_qp_#in56>
22

> <i_qp_#noncon>
6

> <i_qp_#nonHatm>
30

> <r_qp_Jm>
3.02719

> <stars>
0

> <logP>
2.42019

> <Caco>
2147.28

> <MDCK>
1130.01

> <HumanOralAbsorption>
3

> <PercentHumanOralAbsorption>
100.0

> <RuleOfFive>
0

> <base>
fda.sdf

$$$$
S5667 Fruquintinib.cdx_103
                    3D
 Schrodinger Suite 2022-3.
 48 51  0  0  1  0            999 V2000
   -5.5954  -11.1052   39.4269 C   0  0  0  0  0  0
   -6.2568  -10.1430   40.2021 C   0  0  0  0  0  0
   -8.6087   -6.2945   38.5525 C   0  0  0  0  0  0
   -7.7077   -3.6688   38.4494 C   0  0  0  0  0  0
   -6.4728   -8.6483   38.2909 C   0  0  0  0  0  0
   -5.5974   -5.0255   41.0111 C   0  0  0  0  0  0
   -5.3694  -10.8355   38.0658 C   0  0  0  0  0  0
   -7.5731   -5.8634   39.3999 C   0  0  0  0  0  0
   -4.7595  -11.5205   36.9818 C   0  0  0  0  0  0
   -7.1088   -4.5388   39.3574 C   0  0  0  0  0  0
   -5.8127   -9.6237   37.5458 C   0  0  0  0  0  0
   -6.6868   -8.9373   39.6420 C   0  0  0  0  0  0
   -9.1893   -5.4040   37.6550 C   0  0  0  0  0  0
   -8.7379   -4.0898   37.6035 C   0  0  0  0  0  0
   -4.8697  -10.6926   35.8886 C   0  0  0  0  0  0
   -6.9507   -6.7027   40.3196 C   0  0  0  0  0  0
   -4.1402  -12.8140   36.9783 C   0  0  0  0  0  0
   -4.4471  -10.8106   34.4847 C   0  0  0  0  0  0
   -3.6256  -14.8826   35.6273 C   0  0  0  0  0  0
  -10.5936   -7.1921   36.9575 C   0  0  0  0  0  0
   -8.6963   -3.1079   35.4380 C   0  0  0  0  0  0
   -6.1192   -4.1158   40.1634 N   0  0  0  0  0  0
   -5.9577   -6.3125   41.1408 N   0  0  0  0  0  0
   -4.1830  -13.5581   35.7826 N   0  0  0  0  0  0
   -3.5963  -13.2787   38.0085 O   0  0  0  0  0  0
   -5.5073   -9.5396   36.2203 O   0  0  0  0  0  0
   -7.3352   -8.0133   40.4363 O   0  0  0  0  0  0
  -10.1925   -5.8280   36.8385 O   0  0  0  0  0  0
   -9.2908   -3.2013   36.7308 O   0  0  0  0  0  0
   -5.2666  -12.0371   39.8770 H   0  0  0  0  0  0
   -6.4357  -10.3458   41.2556 H   0  0  0  0  0  0
   -8.9672   -7.3210   38.5867 H   0  0  0  0  0  0
   -7.3674   -2.6359   38.3951 H   0  0  0  0  0  0
   -6.8016   -7.7173   37.8442 H   0  0  0  0  0  0
   -4.8013   -4.6782   41.6584 H   0  0  0  0  0  0
   -5.2346  -11.2743   33.8650 H   0  0  0  0  0  0
   -4.2074   -9.8295   34.0355 H   0  0  0  0  0  0
   -3.5339  -11.4233   34.3723 H   0  0  0  0  0  0
   -4.3764  -15.6374   35.8745 H   0  0  0  0  0  0
   -2.7657  -15.0108   36.2903 H   0  0  0  0  0  0
   -3.2985  -15.0363   34.5953 H   0  0  0  0  0  0
  -11.4007   -7.3983   36.2502 H   0  0  0  0  0  0
  -10.9311   -7.3857   37.9786 H   0  0  0  0  0  0
   -9.7398   -7.8347   36.7298 H   0  0  0  0  0  0
   -9.2321   -2.3645   34.8425 H   0  0  0  0  0  0
   -8.7371   -4.0827   34.9458 H   0  0  0  0  0  0
   -7.6536   -2.8005   35.5475 H   0  0  0  0  0  0
   -4.6875  -13.1738   34.9903 H   0  0  0  0  0  0
  1  2  2  0  0  0
  1  7  1  0  0  0
  1 30  1  0  0  0
  2 12  1  0  0  0
  2 31  1  0  0  0
  3  8  2  0  0  0
  3 13  1  0  0  0
  3 32  1  0  0  0
  4 10  2  0  0  0
  4 14  1  0  0  0
  4 33  1  0  0  0
  5 11  1  0  0  0
  5 12  2  0  0  0
  5 34  1  0  0  0
  6 22  2  0  0  0
  6 23  1  0  0  0
  6 35  1  0  0  0
  7  9  1  0  0  0
  7 11  2  0  0  0
  8 10  1  0  0  0
  8 16  1  0  0  0
  9 15  2  0  0  0
  9 17  1  0  0  0
 10 22  1  0  0  0
 11 26  1  0  0  0
 12 27  1  0  0  0
 13 14  2  0  0  0
 13 28  1  0  0  0
 14 29  1  0  0  0
 15 18  1  0  0  0
 15 26  1  0  0  0
 16 23  2  0  0  0
 16 27  1  0  0  0
 17 24  1  0  0  0
 17 25  2  0  0  0
 18 36  1  0  0  0
 18 37  1  0  0  0
 18 38  1  0  0  0
 19 24  1  0  0  0
 19 39  1  0  0  0
 19 40  1  0  0  0
 19 41  1  0  0  0
 20 28  1  0  0  0
 20 42  1  0  0  0
 20 43  1  0  0  0
 20 44  1  0  0  0
 21 29  1  0  0  0
 21 45  1  0  0  0
 21 46  1  0  0  0
 21 47  1  0  0  0
 24 48  1  0  0  0
M  END
> <EON_Query>
60c

> <EON_ET_pb>
0.332

> <EON_ET_coul>
0.303

> <EON_ET_combo>
0.976

> <EON_ShapeTanimoto>
0.645

> <ROCS_ShapeQuery>
60c

> <ROCS_TanimotoCombo>
0.973

> <ROCS_ShapeTanimoto>
0.706

> <ROCS_ColorTanimoto>
0.267

> <ROCS_RefTversky>
0.842

> <ROCS_RefColorTversky>
0.459

> <ROCS_RefTverskyCombo>
1.302

> <ROCS_FitTversky>
0.814

> <ROCS_FitColorTversky>
0.389

> <ROCS_FitTverskyCombo>
1.202

> <ROCS_ColorScore>
-4.642

> <ROCS_Overlap>
1108.12

> <ROCS_Rank>
19

> <EON_Rank>
7

> <i_qp_#stars>
0

> <i_qp_#amine>
0

> <i_qp_#amidine>
0

> <i_qp_#acid>
0

> <i_qp_#amide>
0

> <i_qp_#rotor>
5

> <i_qp_#rtvFG>
0

> <i_qp_CNS>
0

> <r_qp_mol_MW>
393.398

> <r_qp_dipole>
8.76955

> <r_qp_SASA>
645.742

> <r_qp_FOSA>
348.069

> <r_qp_FISA>
88.6287

> <r_qp_PISA>
209.044

> <r_qp_WPSA>
0

> <r_qp_volume>
1159.64

> <r_qp_donorHB>
1

> <r_qp_accptHB>
7

> <r_qp_dip^2/V>
0.0663182

> <r_qp_ACxDN^.5/SA>
0.0108402

> <r_qp_glob>
0.826648

> <r_qp_QPpolrz>
39.0405

> <r_qp_QPlogPC16>
11.312

> <r_qp_QPlogPoct>
18.7065

> <r_qp_QPlogPw>
10.5545

> <r_qp_QPlogPo/w>
3.26392

> <r_qp_QPlogS>
-4.65679

> <r_qp_CIQPlogS>
-5.55

> <r_qp_QPlogHERG>
-5.33394

> <r_qp_QPPCaco>
1430.32

> <r_qp_QPlogBB>
-0.602517

> <r_qp_QPPMDCK>
728.376

> <r_qp_QPlogKp>
-1.93648

> <r_qp_IP(eV)>
9.09192

> <r_qp_EA(eV)>
1.44154

> <i_qp_#metab>
5

> <r_qp_QPlogKhsa>
0.18508

> <i_qp_HumanOralAbsorption>
3

> <r_qp_PercentHumanOralAbsorption>
100

> <r_qp_SAfluorine>
0

> <r_qp_SAamideO>
0

> <r_qp_PSA>
94.5784

> <i_qp_#NandO>
8

> <i_qp_RuleOfFive>
0

> <i_qp_RuleOfThree>
0

> <i_qp_#ringatoms>
19

> <i_qp_#in34>
0

> <i_qp_#in56>
19

> <i_qp_#noncon>
0

> <i_qp_#nonHatm>
29

> <r_qp_Jm>
0.100359

> <stars>
0

> <logP>
3.26392

> <Caco>
1430.32

> <MDCK>
728.376

> <HumanOralAbsorption>
3

> <PercentHumanOralAbsorption>
100.0

> <RuleOfFive>
0

> <base>
fda.sdf

$$$$
BindingDB_50035218_mol_1_1
                    3D
 Schrodinger Suite 2022-3.
 52 56  0  0  1  0            999 V2000
   -4.9812   -8.4391   37.4634 C   0  0  0  0  0  0
   -6.2058  -10.8832   38.1764 C   0  0  0  0  0  0
   -7.9127   -6.7513   38.0402 C   0  0  0  0  0  0
   -6.6848   -4.9064   39.0021 C   0  0  0  0  0  0
   -5.7673   -8.5140   38.6304 C   0  0  0  0  0  0
   -6.3985   -9.7480   38.9866 C   0  0  0  0  0  0
   -6.8616   -6.2788   38.8259 C   0  0  0  0  0  0
   -4.8365   -9.5739   36.6947 C   0  0  0  0  0  0
   -5.4303  -10.7617   37.0419 C   0  0  0  0  0  0
   -8.7872   -5.8516   37.4306 C   0  0  0  0  0  0
   -7.5593   -4.0066   38.3926 C   0  0  0  0  0  0
   -8.6104   -4.4792   37.6068 C   0  0  0  0  0  0
   -6.8474   -6.5803   41.8670 C   0  0  0  0  0  0
   -8.0461   -8.5021   42.2849 C   0  0  0  0  0  0
   -4.3224  -11.0582   35.2073 C   0  0  0  0  0  0
   -5.9219   -7.2456   39.4814 C   0  0  1  0  0  0
   -7.2222   -9.8930   40.2601 C   0  0  1  0  0  0
   -6.3803   -7.6308   40.8929 C   0  0  2  0  0  0
   -7.5905   -8.5383   40.8454 C   0  0  2  0  0  0
   -9.9195   -7.7423   36.5370 C   0  0  0  0  0  0
   -6.2775   -2.2697   39.3907 C   0  0  0  0  0  0
   -9.1204   -3.1476   35.7036 C   0  0  0  0  0  0
   -6.4196   -5.4427   41.9711 O   0  0  0  0  0  0
   -4.1145   -9.6719   35.5453 O   0  0  0  0  0  0
   -5.1544  -11.7571   36.1553 O   0  0  0  0  0  0
   -7.8165   -7.1341   42.6731 O   0  0  0  0  0  0
   -8.4216  -10.6139   39.9894 O   0  0  0  0  0  0
   -9.8097   -6.3262   36.6657 O   0  0  0  0  0  0
   -7.3757   -2.6687   38.5729 O   0  0  0  0  0  0
   -9.4651   -3.5998   37.0110 O   0  0  0  0  0  0
   -4.4964   -7.5120   37.1740 H   0  0  0  0  0  0
   -6.6513  -11.8390   38.4344 H   0  0  0  0  0  0
   -8.0527   -7.8207   37.9014 H   0  0  0  0  0  0
   -5.8662   -4.5354   39.6141 H   0  0  0  0  0  0
   -9.1100   -8.7334   42.3883 H   0  0  0  0  0  0
   -7.4670   -9.1560   42.9454 H   0  0  0  0  0  0
   -4.7943  -11.1118   34.2196 H   0  0  0  0  0  0
   -3.3481  -11.5579   35.1603 H   0  0  0  0  0  0
   -4.9478   -6.7472   39.5617 H   0  0  0  0  0  0
   -6.6291  -10.4757   40.9761 H   0  0  0  0  0  0
   -5.5488   -8.1499   41.3955 H   0  0  0  0  0  0
   -8.3886   -8.0808   40.2411 H   0  0  0  0  0  0
  -10.7750   -7.9861   35.9023 H   0  0  0  0  0  0
  -10.0465   -8.1902   37.5258 H   0  0  0  0  0  0
   -9.0065   -8.1295   36.0784 H   0  0  0  0  0  0
   -6.2451   -1.1792   39.4518 H   0  0  0  0  0  0
   -5.3464   -2.6491   38.9622 H   0  0  0  0  0  0
   -6.4111   -2.6848   40.3923 H   0  0  0  0  0  0
   -9.8836   -2.4526   35.3446 H   0  0  0  0  0  0
   -9.0460   -4.0039   35.0287 H   0  0  0  0  0  0
   -8.1562   -2.6357   35.7473 H   0  0  0  0  0  0
   -8.9077  -10.1015   39.3250 H   0  0  0  0  0  0
  1  5  2  0  0  0
  1  8  1  0  0  0
  1 31  1  0  0  0
  2  6  2  0  0  0
  2  9  1  0  0  0
  2 32  1  0  0  0
  3  7  2  0  0  0
  3 10  1  0  0  0
  3 33  1  0  0  0
  4  7  1  0  0  0
  4 11  2  0  0  0
  4 34  1  0  0  0
  5  6  1  0  0  0
  5 16  1  0  0  0
  6 17  1  0  0  0
  7 16  1  0  0  0
  8  9  2  0  0  0
  8 24  1  0  0  0
  9 25  1  0  0  0
 10 12  2  0  0  0
 10 28  1  0  0  0
 11 12  1  0  0  0
 11 29  1  0  0  0
 12 30  1  0  0  0
 13 18  1  0  0  0
 13 23  2  0  0  0
 13 26  1  0  0  0
 14 19  1  0  0  0
 14 26  1  0  0  0
 14 35  1  0  0  0
 14 36  1  0  0  0
 15 24  1  0  0  0
 15 25  1  0  0  0
 15 37  1  0  0  0
 15 38  1  0  0  0
 16 18  1  0  0  0
 16 39  1  0  0  0
 17 19  1  0  0  0
 17 27  1  0  0  0
 17 40  1  0  0  0
 18 19  1  0  0  0
 18 41  1  0  0  0
 19 42  1  0  0  0
 20 28  1  0  0  0
 20 43  1  0  0  0
 20 44  1  0  0  0
 20 45  1  0  0  0
 21 29  1  0  0  0
 21 46  1  0  0  0
 21 47  1  0  0  0
 21 48  1  0  0  0
 22 30  1  0  0  0
 22 49  1  0  0  0
 22 50  1  0  0  0
 22 51  1  0  0  0
 27 52  1  0  0  0
M  END
> <EON_Query>
60c

> <EON_ET_pb>
0.319

> <EON_ET_coul>
0.39

> <EON_ET_combo>
0.972

> <EON_ShapeTanimoto>
0.654

> <ROCS_ShapeQuery>
60c

> <ROCS_TanimotoCombo>
0.999

> <ROCS_ShapeTanimoto>
0.71

> <ROCS_ColorTanimoto>
0.289

> <ROCS_RefTversky>
0.857

> <ROCS_RefColorTversky>
0.509

> <ROCS_RefTverskyCombo>
1.366

> <ROCS_FitTversky>
0.805

> <ROCS_FitColorTversky>
0.401

> <ROCS_FitTverskyCombo>
1.205

> <ROCS_ColorScore>
-5.168

> <ROCS_Overlap>
1130.03

> <ROCS_Rank>
15

> <EON_Rank>
9

> <i_qp_#stars>
0

> <i_qp_#amine>
0

> <i_qp_#amidine>
0

> <i_qp_#acid>
0

> <i_qp_#amide>
0

> <i_qp_#rotor>
4

> <i_qp_#rtvFG>
2

> <i_qp_CNS>
-1

> <r_qp_mol_MW>
414.411

> <r_qp_dipole>
5.53647

> <r_qp_SASA>
546.606

> <r_qp_FOSA>
385.087

> <r_qp_FISA>
70.7299

> <r_qp_PISA>
90.789

> <r_qp_WPSA>
0

> <r_qp_volume>
1095.32

> <r_qp_donorHB>
1

> <r_qp_accptHB>
8.45

> <r_qp_dip^2/V>
0.027985

> <r_qp_ACxDN^.5/SA>
0.015459

> <r_qp_glob>
0.940123

> <r_qp_QPpolrz>
35.9794

> <r_qp_QPlogPC16>
10.1114

> <r_qp_QPlogPoct>
17.9982

> <r_qp_QPlogPw>
11.0386

> <r_qp_QPlogPo/w>
2.32847

> <r_qp_QPlogS>
-2.64345

> <r_qp_CIQPlogS>
-5.1785

> <r_qp_QPlogHERG>
-2.93385

> <r_qp_QPPCaco>
2114.31

> <r_qp_QPlogBB>
-0.211093

> <r_qp_QPPMDCK>
1111.27

> <r_qp_QPlogKp>
-2.11919

> <r_qp_IP(eV)>
9.16154

> <r_qp_EA(eV)>
0.377049

> <i_qp_#metab>
6

> <r_qp_QPlogKhsa>
-0.146633

> <i_qp_HumanOralAbsorption>
3

> <r_qp_PercentHumanOralAbsorption>
100

> <r_qp_SAfluorine>
0

> <r_qp_SAamideO>
0

> <r_qp_PSA>
102.092

> <i_qp_#NandO>
8

> <i_qp_RuleOfFive>
0

> <i_qp_RuleOfThree>
0

> <i_qp_#ringatoms>
22

> <i_qp_#in34>
0

> <i_qp_#in56>
22

> <i_qp_#noncon>
6

> <i_qp_#nonHatm>
30

> <r_qp_Jm>
7.15793

> <stars>
0

> <logP>
2.32847

> <Caco>
2114.31

> <MDCK>
1111.27

> <HumanOralAbsorption>
3

> <PercentHumanOralAbsorption>
100.0

> <RuleOfFive>
0

> <base>
fda.sdf

$$$$
S9227 Sinensetin.cdx_18
                    3D
 Schrodinger Suite 2022-3.
 47 49  0  0  1  0            999 V2000
   -6.1941  -10.6803   38.1620 C   0  0  0  0  0  0
   -5.8196  -11.8836   37.5641 C   0  0  0  0  0  0
   -5.0481   -9.4587   36.4209 C   0  0  0  0  0  0
   -8.1410   -5.3553   37.0477 C   0  0  0  0  0  0
   -5.8083   -9.4678   37.5904 C   0  0  0  0  0  0
   -7.0702   -5.7214   39.1813 C   0  0  0  0  0  0
   -7.3777   -6.1596   37.8943 C   0  0  0  0  0  0
   -5.0594  -11.8744   36.3946 C   0  0  0  0  0  0
   -4.6736  -10.6619   35.8231 C   0  0  0  0  0  0
   -8.5946   -4.1136   37.4936 C   0  0  0  0  0  0
   -7.5221   -4.4788   39.6313 C   0  0  0  0  0  0
   -8.2858   -3.6765   38.7825 C   0  0  0  0  0  0
   -5.8415   -7.8818   39.4755 C   0  0  0  0  0  0
   -6.2072   -8.1941   38.2221 C   0  0  0  0  0  0
   -6.2627   -6.5891   40.0522 C   0  0  0  0  0  0
   -5.5943  -13.6064   34.8552 C   0  0  0  0  0  0
   -4.6415  -10.6191   33.4454 C   0  0  0  0  0  0
   -9.6102   -3.8557   35.3587 C   0  0  0  0  0  0
   -8.1681   -4.3433   41.9162 C   0  0  0  0  0  0
   -7.8848   -1.3403   38.9739 C   0  0  0  0  0  0
   -5.9524   -6.2665   41.1906 O   0  0  0  0  0  0
   -6.9603   -7.3695   37.4003 O   0  0  0  0  0  0
   -4.7002  -13.0564   35.8208 O   0  0  0  0  0  0
   -3.9303  -10.6411   34.6816 O   0  0  0  0  0  0
   -9.3393   -3.3359   36.6588 O   0  0  0  0  0  0
   -7.2409   -4.0175   40.8830 O   0  0  0  0  0  0
   -8.7333   -2.4608   39.2101 O   0  0  0  0  0  0
   -6.7876  -10.7033   39.0727 H   0  0  0  0  0  0
   -6.1232  -12.8247   38.0147 H   0  0  0  0  0  0
   -4.7434   -8.5176   35.9682 H   0  0  0  0  0  0
   -8.3828   -5.6939   36.0435 H   0  0  0  0  0  0
   -5.2475   -8.5448   40.0952 H   0  0  0  0  0  0
   -5.1889  -14.5480   34.4767 H   0  0  0  0  0  0
   -5.7259  -12.8977   34.0337 H   0  0  0  0  0  0
   -6.5601  -13.7933   35.3308 H   0  0  0  0  0  0
   -3.9307  -10.6039   32.6156 H   0  0  0  0  0  0
   -5.2809   -9.7336   33.4077 H   0  0  0  0  0  0
   -5.2606  -11.5165   33.3755 H   0  0  0  0  0  0
  -10.2118   -3.1373   34.7963 H   0  0  0  0  0  0
  -10.1459   -4.8041   35.4489 H   0  0  0  0  0  0
   -8.6643   -4.0219   34.8381 H   0  0  0  0  0  0
   -7.8259   -3.9157   42.8617 H   0  0  0  0  0  0
   -8.2505   -5.4295   42.0037 H   0  0  0  0  0  0
   -9.1449   -3.9250   41.6620 H   0  0  0  0  0  0
   -8.3584   -0.4354   39.3624 H   0  0  0  0  0  0
   -7.7049   -1.2383   37.9007 H   0  0  0  0  0  0
   -6.9337   -1.5001   39.4871 H   0  0  0  0  0  0
  1  2  2  0  0  0
  1  5  1  0  0  0
  1 28  1  0  0  0
  2  8  1  0  0  0
  2 29  1  0  0  0
  3  5  2  0  0  0
  3  9  1  0  0  0
  3 30  1  0  0  0
  4  7  2  0  0  0
  4 10  1  0  0  0
  4 31  1  0  0  0
  5 14  1  0  0  0
  6  7  1  0  0  0
  6 11  2  0  0  0
  6 15  1  0  0  0
  7 22  1  0  0  0
  8  9  2  0  0  0
  8 23  1  0  0  0
  9 24  1  0  0  0
 10 12  2  0  0  0
 10 25  1  0  0  0
 11 12  1  0  0  0
 11 26  1  0  0  0
 12 27  1  0  0  0
 13 14  2  0  0  0
 13 15  1  0  0  0
 13 32  1  0  0  0
 14 22  1  0  0  0
 15 21  2  0  0  0
 16 23  1  0  0  0
 16 33  1  0  0  0
 16 34  1  0  0  0
 16 35  1  0  0  0
 17 24  1  0  0  0
 17 36  1  0  0  0
 17 37  1  0  0  0
 17 38  1  0  0  0
 18 25  1  0  0  0
 18 39  1  0  0  0
 18 40  1  0  0  0
 18 41  1  0  0  0
 19 26  1  0  0  0
 19 42  1  0  0  0
 19 43  1  0  0  0
 19 44  1  0  0  0
 20 27  1  0  0  0
 20 45  1  0  0  0
 20 46  1  0  0  0
 20 47  1  0  0  0
M  END
> <EON_Query>
60c

> <EON_ET_pb>
0.346

> <EON_ET_coul>
0.353

> <EON_ET_combo>
0.922

> <EON_ShapeTanimoto>
0.576

> <ROCS_ShapeQuery>
60c

> <ROCS_TanimotoCombo>
0.894

> <ROCS_ShapeTanimoto>
0.619

> <ROCS_ColorTanimoto>
0.275

> <ROCS_RefTversky>
0.746

> <ROCS_RefColorTversky>
0.432

> <ROCS_RefTverskyCombo>
1.178

> <ROCS_FitTversky>
0.783

> <ROCS_FitColorTversky>
0.432

> <ROCS_FitTverskyCombo>
1.215

> <ROCS_ColorScore>
-4.32

> <ROCS_Overlap>
977.698

> <ROCS_Rank>
103

> <EON_Rank>
13

> <i_qp_#stars>
0

> <i_qp_#amine>
0

> <i_qp_#amidine>
0

> <i_qp_#acid>
0

> <i_qp_#amide>
0

> <i_qp_#rotor>
5

> <i_qp_#rtvFG>
0

> <i_qp_CNS>
0

> <r_qp_mol_MW>
372.374

> <r_qp_dipole>
7.83657

> <r_qp_SASA>
608.846

> <r_qp_FOSA>
392.804

> <r_qp_FISA>
39.1044

> <r_qp_PISA>
176.938

> <r_qp_WPSA>
0

> <r_qp_volume>
1101.66

> <r_qp_donorHB>
0

> <r_qp_accptHB>
6.25

> <r_qp_dip^2/V>
0.055745

> <r_qp_ACxDN^.5/SA>
0

> <r_qp_glob>
0.847271

> <r_qp_QPpolrz>
36.4136

> <r_qp_QPlogPC16>
9.98603

> <r_qp_QPlogPoct>
15.543

> <r_qp_QPlogPw>
7.70711

> <r_qp_QPlogPo/w>
3.37512

> <r_qp_QPlogS>
-3.66833

> <r_qp_CIQPlogS>
-5.04095

> <r_qp_QPlogHERG>
-4.84713

> <r_qp_QPPCaco>
4217.67

> <r_qp_QPlogBB>
-0.100991

> <r_qp_QPPMDCK>
2344.12

> <r_qp_QPlogKp>
-1.13685

> <r_qp_IP(eV)>
9.25894

> <r_qp_EA(eV)>
0.746771

> <i_qp_#metab>
5

> <r_qp_QPlogKhsa>
-0.0680623

> <i_qp_HumanOralAbsorption>
3

> <r_qp_PercentHumanOralAbsorption>
100

> <r_qp_SAfluorine>
0

> <r_qp_SAamideO>
0

> <r_qp_PSA>
71.5955

> <i_qp_#NandO>
7

> <i_qp_RuleOfFive>
0

> <i_qp_RuleOfThree>
0

> <i_qp_#ringatoms>
16

> <i_qp_#in34>
0

> <i_qp_#in56>
16

> <i_qp_#noncon>
0

> <i_qp_#nonHatm>
27

> <r_qp_Jm>
5.83182

> <stars>
0

> <logP>
3.37512

> <Caco>
4217.67

> <MDCK>
2344.12

> <HumanOralAbsorption>
3

> <PercentHumanOralAbsorption>
100.0

> <RuleOfFive>
0

> <base>
fda.sdf

$$$$
Z743362616_168
                    3D
 Schrodinger Suite 2022-3.
 33 33  0  0  1  0            999 V2000
   -8.7278   -5.5727   37.4291 C   0  0  0  0  0  0
   -8.1399   -6.2766   38.4743 C   0  0  0  0  0  0
   -8.6713   -4.1888   37.4668 C   0  0  0  0  0  0
   -7.5198   -4.2007   39.4549 C   0  0  0  0  0  0
   -7.5225   -5.5851   39.5105 C   0  0  0  0  0  0
   -6.8869   -6.3098   40.6398 C   0  0  0  0  0  0
   -4.5580  -10.8039   34.2767 C   0  0  0  0  0  0
   -4.8375  -11.2555   35.7011 C   0  0  0  0  0  0
   -5.0226  -10.0659   36.6389 C   0  0  0  0  0  0
   -5.3453  -10.5132   38.0574 C   0  0  0  0  0  0
   -5.9748   -8.4510   41.0383 C   0  0  0  0  0  0
   -5.8245   -9.7162   40.2156 C   0  0  0  0  0  0
   -8.0804   -3.4821   38.4563 N   0  0  0  0  0  0
   -6.3335   -5.7458   41.5710 O   0  0  0  0  0  0
   -7.0143   -7.6559   40.4812 O   0  0  0  0  0  0
   -5.5196   -9.3629   38.8732 O   0  0  0  0  0  0
   -9.2141   -6.0905   36.6105 H   0  0  0  0  0  0
   -8.1694   -7.3630   38.4718 H   0  0  0  0  0  0
   -9.1152   -3.5935   36.6759 H   0  0  0  0  0  0
   -7.0527   -3.6060   40.2342 H   0  0  0  0  0  0
   -3.6622  -10.1762   34.2327 H   0  0  0  0  0  0
   -4.4086  -11.6631   33.6150 H   0  0  0  0  0  0
   -5.4005  -10.2211   33.8916 H   0  0  0  0  0  0
   -5.7382  -11.8803   35.7101 H   0  0  0  0  0  0
   -4.0064  -11.8794   36.0501 H   0  0  0  0  0  0
   -4.1169   -9.4468   36.6504 H   0  0  0  0  0  0
   -5.8257   -9.4145   36.2719 H   0  0  0  0  0  0
   -6.2689  -11.1002   38.0813 H   0  0  0  0  0  0
   -4.5299  -11.1141   38.4728 H   0  0  0  0  0  0
   -5.0525   -7.8620   41.0282 H   0  0  0  0  0  0
   -6.2453   -8.6950   42.0698 H   0  0  0  0  0  0
   -6.7518  -10.2976   40.2129 H   0  0  0  0  0  0
   -5.0059  -10.3297   40.6030 H   0  0  0  0  0  0
  1  2  2  0  0  0
  1  3  1  0  0  0
  1 17  1  0  0  0
  2  5  1  0  0  0
  2 18  1  0  0  0
  3 13  2  0  0  0
  3 19  1  0  0  0
  4  5  2  0  0  0
  4 13  1  0  0  0
  4 20  1  0  0  0
  5  6  1  0  0  0
  6 14  2  0  0  0
  6 15  1  0  0  0
  7  8  1  0  0  0
  7 21  1  0  0  0
  7 22  1  0  0  0
  7 23  1  0  0  0
  8  9  1  0  0  0
  8 24  1  0  0  0
  8 25  1  0  0  0
  9 10  1  0  0  0
  9 26  1  0  0  0
  9 27  1  0  0  0
 10 16  1  0  0  0
 10 28  1  0  0  0
 10 29  1  0  0  0
 11 12  1  0  0  0
 11 15  1  0  0  0
 11 30  1  0  0  0
 11 31  1  0  0  0
 12 16  1  0  0  0
 12 32  1  0  0  0
 12 33  1  0  0  0
M  END
> <EON_Query>
60c

> <EON_ET_pb>
0.223

> <EON_ET_coul>
0.308

> <EON_ET_combo>
0.846

> <EON_ShapeTanimoto>
0.623

> <ROCS_ShapeQuery>
60c

> <ROCS_TanimotoCombo>
0.845

> <ROCS_ShapeTanimoto>
0.656

> <ROCS_ColorTanimoto>
0.189

> <ROCS_RefTversky>
0.615

> <ROCS_RefColorTversky>
0.244

> <ROCS_RefTverskyCombo>
0.859

> <ROCS_FitTversky>
1.113

> <ROCS_FitColorTversky>
0.454

> <ROCS_FitTverskyCombo>
1.567

> <ROCS_ColorScore>
-2.382

> <ROCS_Overlap>
788.112

> <ROCS_Rank>
291

> <EON_Rank>
24

> <i_qp_#stars>
0

> <i_qp_#amine>
0

> <i_qp_#amidine>
0

> <i_qp_#acid>
0

> <i_qp_#amide>
0

> <i_qp_#rotor>
7

> <i_qp_#rtvFG>
1

> <i_qp_CNS>
0

> <r_qp_mol_MW>
223.271

> <r_qp_dipole>
5.85189

> <r_qp_SASA>
519.638

> <r_qp_FOSA>
288.904

> <r_qp_FISA>
82.9306

> <r_qp_PISA>
147.804

> <r_qp_WPSA>
0

> <r_qp_volume>
854.966

> <r_qp_donorHB>
0

> <r_qp_accptHB>
5.2

> <r_qp_dip^2/V>
0.0400537

> <r_qp_ACxDN^.5/SA>
0

> <r_qp_glob>
0.838359

> <r_qp_QPpolrz>
24.9786

> <r_qp_QPlogPC16>
7.64458

> <r_qp_QPlogPoct>
10.7714

> <r_qp_QPlogPw>
6.11685

> <r_qp_QPlogPo/w>
1.93962

> <r_qp_QPlogS>
-2.20203

> <r_qp_CIQPlogS>
-1.7621

> <r_qp_QPlogHERG>
-4.8524

> <r_qp_QPPCaco>
1619.83

> <r_qp_QPlogBB>
-0.645005

> <r_qp_QPPMDCK>
833.224

> <r_qp_QPlogKp>
-1.85517

> <r_qp_IP(eV)>
10.3686

> <r_qp_EA(eV)>
0.646748

> <i_qp_#metab>
3

> <r_qp_QPlogKhsa>
-0.588253

> <i_qp_HumanOralAbsorption>
3

> <r_qp_PercentHumanOralAbsorption>
95.746

> <r_qp_SAfluorine>
0

> <r_qp_SAamideO>
0

> <r_qp_PSA>
56.0042

> <i_qp_#NandO>
4

> <i_qp_RuleOfFive>
0

> <i_qp_RuleOfThree>
0

> <i_qp_#ringatoms>
6

> <i_qp_#in34>
0

> <i_qp_#in56>
6

> <i_qp_#noncon>
0

> <i_qp_#nonHatm>
16

> <r_qp_Jm>
19.5718

> <stars>
0

> <logP>
1.93962

> <Caco>
1619.83

> <MDCK>
833.224

> <HumanOralAbsorption>
3

> <PercentHumanOralAbsorption>
95.746

> <RuleOfFive>
0

> <base>
fda.sdf

$$$$
CAPITAL SOLEIL 15 (avobenzone ).cdx_215
                    3D
 Schrodinger Suite 2022-3.
 45 46  0  0  1  0            999 V2000
   -6.5487  -10.1590   38.3820 C   0  0  0  0  0  0
   -4.3613   -9.1639   38.6311 C   0  0  0  0  0  0
   -7.8675   -6.2527   38.3538 C   0  0  0  0  0  0
   -7.8193   -4.3582   39.8525 C   0  0  0  0  0  0
   -6.2031  -10.5994   37.1045 C   0  0  0  0  0  0
   -4.0156   -9.6043   37.3535 C   0  0  0  0  0  0
   -8.4830   -5.4664   37.3798 C   0  0  0  0  0  0
   -8.4347   -3.5720   38.8784 C   0  0  0  0  0  0
   -5.6279   -9.4412   39.1453 C   0  0  0  0  0  0
   -7.5357   -5.6986   39.5901 C   0  0  0  0  0  0
   -4.9364  -10.3221   36.5903 C   0  0  0  0  0  0
   -8.7666   -4.1261   37.6421 C   0  0  0  0  0  0
   -5.9871   -8.9819   40.4777 C   0  0  0  0  0  0
   -6.8776   -6.5387   40.6313 C   0  0  0  0  0  0
   -5.5193  -10.1969   34.1427 C   0  0  0  0  0  0
   -4.6531  -12.3485   35.1206 C   0  0  0  0  0  0
   -3.1204  -10.4252   34.7553 C   0  0  0  0  0  0
   -9.6796   -3.9887   35.4504 C   0  0  0  0  0  0
   -7.1786   -8.0278   40.6600 C   0  0  0  0  0  0
   -4.5554  -10.8088   35.1823 C   0  0  0  0  0  0
   -5.3191   -9.3359   41.4689 O   0  0  0  0  0  0
   -6.1349   -6.0002   41.4484 O   0  0  0  0  0  0
   -9.3673   -3.3588   36.6920 O   0  0  0  0  0  0
   -7.5382  -10.3803   38.7736 H   0  0  0  0  0  0
   -3.6358   -8.6054   39.2167 H   0  0  0  0  0  0
   -7.6511   -7.2958   38.1379 H   0  0  0  0  0  0
   -7.5644   -3.9170   40.8126 H   0  0  0  0  0  0
   -6.9266  -11.1582   36.5170 H   0  0  0  0  0  0
   -3.0262   -9.3843   36.9609 H   0  0  0  0  0  0
   -8.7392   -5.9038   36.4187 H   0  0  0  0  0  0
   -8.6534   -2.5286   39.0887 H   0  0  0  0  0  0
   -5.2689  -10.5286   33.1283 H   0  0  0  0  0  0
   -6.5612  -10.4824   34.3247 H   0  0  0  0  0  0
   -5.4710   -9.1016   34.1569 H   0  0  0  0  0  0
   -4.3895  -12.7414   34.1325 H   0  0  0  0  0  0
   -3.9741  -12.8169   35.8428 H   0  0  0  0  0  0
   -5.6699  -12.6888   35.3494 H   0  0  0  0  0  0
   -2.8966  -10.7936   33.7468 H   0  0  0  0  0  0
   -2.9811   -9.3380   34.7387 H   0  0  0  0  0  0
   -2.3703  -10.8557   35.4290 H   0  0  0  0  0  0
  -10.1548   -3.2653   34.7833 H   0  0  0  0  0  0
  -10.3508   -4.8327   35.6278 H   0  0  0  0  0  0
   -8.7555   -4.3503   34.9931 H   0  0  0  0  0  0
   -7.8815   -8.2589   39.8521 H   0  0  0  0  0  0
   -7.6276   -8.2361   41.6374 H   0  0  0  0  0  0
  1  5  2  0  0  0
  1  9  1  0  0  0
  1 24  1  0  0  0
  2  6  1  0  0  0
  2  9  2  0  0  0
  2 25  1  0  0  0
  3  7  2  0  0  0
  3 10  1  0  0  0
  3 26  1  0  0  0
  4  8  1  0  0  0
  4 10  2  0  0  0
  4 27  1  0  0  0
  5 11  1  0  0  0
  5 28  1  0  0  0
  6 11  2  0  0  0
  6 29  1  0  0  0
  7 12  1  0  0  0
  7 30  1  0  0  0
  8 12  2  0  0  0
  8 31  1  0  0  0
  9 13  1  0  0  0
 10 14  1  0  0  0
 11 20  1  0  0  0
 12 23  1  0  0  0
 13 19  1  0  0  0
 13 21  2  0  0  0
 14 19  1  0  0  0
 14 22  2  0  0  0
 15 20  1  0  0  0
 15 32  1  0  0  0
 15 33  1  0  0  0
 15 34  1  0  0  0
 16 20  1  0  0  0
 16 35  1  0  0  0
 16 36  1  0  0  0
 16 37  1  0  0  0
 17 20  1  0  0  0
 17 38  1  0  0  0
 17 39  1  0  0  0
 17 40  1  0  0  0
 18 23  1  0  0  0
 18 41  1  0  0  0
 18 42  1  0  0  0
 18 43  1  0  0  0
 19 44  1  0  0  0
 19 45  1  0  0  0
M  END
> <EON_Query>
60c

> <EON_ET_pb>
0.27

> <EON_ET_coul>
0.263

> <EON_ET_combo>
0.829

> <EON_ShapeTanimoto>
0.558

> <ROCS_ShapeQuery>
60c

> <ROCS_TanimotoCombo>
0.923

> <ROCS_ShapeTanimoto>
0.708

> <ROCS_ColorTanimoto>
0.215

> <ROCS_RefTversky>
0.742

> <ROCS_RefColorTversky>
0.306

> <ROCS_RefTverskyCombo>
1.048

> <ROCS_FitTversky>
0.939

> <ROCS_FitColorTversky>
0.421

> <ROCS_FitTverskyCombo>
1.36

> <ROCS_ColorScore>
-3.014

> <ROCS_Overlap>
962.987

> <ROCS_Rank>
60

> <EON_Rank>
25

> <i_qp_#stars>
0

> <i_qp_#amine>
0

> <i_qp_#amidine>
0

> <i_qp_#acid>
0

> <i_qp_#amide>
0

> <i_qp_#rotor>
6

> <i_qp_#rtvFG>
0

> <i_qp_CNS>
0

> <r_qp_mol_MW>
310.392

> <r_qp_dipole>
8.60376

> <r_qp_SASA>
601.211

> <r_qp_FOSA>
310.32

> <r_qp_FISA>
82.4102

> <r_qp_PISA>
208.481

> <r_qp_WPSA>
0

> <r_qp_volume>
1075.94

> <r_qp_donorHB>
0

> <r_qp_accptHB>
4.75

> <r_qp_dip^2/V>
0.0688002

> <r_qp_ACxDN^.5/SA>
0

> <r_qp_glob>
0.844622

> <r_qp_QPpolrz>
35.0434

> <r_qp_QPlogPC16>
10.2666

> <r_qp_QPlogPoct>
14.6477

> <r_qp_QPlogPw>
6.49978

> <r_qp_QPlogPo/w>
3.67503

> <r_qp_QPlogS>
-4.14625

> <r_qp_CIQPlogS>
-4.18064

> <r_qp_QPlogHERG>
-5.04041

> <r_qp_QPPCaco>
1638.34

> <r_qp_QPlogBB>
-0.568253

> <r_qp_QPPMDCK>
843.521

> <r_qp_QPlogKp>
-1.72784

> <r_qp_IP(eV)>
9.48498

> <r_qp_EA(eV)>
0.40712

> <i_qp_#metab>
2

> <r_qp_QPlogKhsa>
0.216059

> <i_qp_HumanOralAbsorption>
3

> <r_qp_PercentHumanOralAbsorption>
100

> <r_qp_SAfluorine>
0

> <r_qp_SAamideO>
0

> <r_qp_PSA>
61.223

> <i_qp_#NandO>
3

> <i_qp_RuleOfFive>
0

> <i_qp_RuleOfThree>
0

> <i_qp_#ringatoms>
12

> <i_qp_#in34>
0

> <i_qp_#in56>
12

> <i_qp_#noncon>
0

> <i_qp_#nonHatm>
23

> <r_qp_Jm>
0.414776

> <stars>
0

> <logP>
3.67503

> <Caco>
1638.34

> <MDCK>
843.521

> <HumanOralAbsorption>
3

> <PercentHumanOralAbsorption>
100.0

> <RuleOfFive>
0

> <base>
fda.sdf

$$$$
FENOFIBRATE (MICRONIZED) (fenofibrate).cdx_280
                    3D
 Schrodinger Suite 2022-3.
 46 47  0  0  1  0            999 V2000
   -5.6453   -8.3734   39.1766 C   0  0  0  0  0  0
   -6.8380   -8.8738   41.2171 C   0  0  0  0  0  0
   -8.3634   -6.2838   38.7229 C   0  0  0  0  0  0
   -7.0851   -4.3393   39.3722 C   0  0  0  0  0  0
   -5.4050   -9.7337   38.9834 C   0  0  0  0  0  0
   -6.5978  -10.2341   41.0240 C   0  0  0  0  0  0
   -9.0707   -5.5114   37.8017 C   0  0  0  0  0  0
   -7.7923   -3.5668   38.4509 C   0  0  0  0  0  0
   -6.3618   -7.9435   40.2934 C   0  0  0  0  0  0
   -7.3707   -5.6978   39.5083 C   0  0  0  0  0  0
   -5.8812  -10.6641   39.9072 C   0  0  0  0  0  0
   -8.7851   -4.1529   37.6657 C   0  0  0  0  0  0
   -6.6126   -6.5251   40.4948 C   0  0  0  0  0  0
   -5.1206  -12.4797   37.4099 C   0  0  0  0  0  0
   -5.5047  -11.4903   33.9695 C   0  0  0  0  0  0
   -3.8963  -10.3042   35.5050 C   0  0  0  0  0  0
   -6.4476  -14.0518   38.8017 C   0  0  0  0  0  0
   -7.4352  -11.8342   38.1432 C   0  0  0  0  0  0
   -4.7110  -11.5660   35.2650 C   0  0  0  0  0  0
   -6.1576  -12.5799   38.5253 C   0  0  0  0  0  0
   -6.1945   -5.9549   41.5135 O   0  0  0  0  0  0
   -3.9939  -12.9563   37.4774 O   0  0  0  0  0  0
   -5.6451  -12.0009   39.7177 O   0  0  0  0  0  0
   -5.6129  -11.7599   36.3592 O   0  0  0  0  0  0
   -9.6566   -3.2003   36.5283 Cl  0  0  0  0  0  0
   -5.2696   -7.6576   38.4499 H   0  0  0  0  0  0
   -7.3977   -8.5489   42.0906 H   0  0  0  0  0  0
   -8.5944   -7.3414   38.8212 H   0  0  0  0  0  0
   -6.3134   -3.8722   39.9786 H   0  0  0  0  0  0
   -4.8461  -10.0624   38.1115 H   0  0  0  0  0  0
   -6.9710  -10.9542   41.7471 H   0  0  0  0  0  0
   -9.8413   -5.9811   37.1959 H   0  0  0  0  0  0
   -7.5590   -2.5094   38.3561 H   0  0  0  0  0  0
   -6.1842  -10.6327   33.9697 H   0  0  0  0  0  0
   -4.8281  -11.4009   33.1129 H   0  0  0  0  0  0
   -6.0914  -12.4023   33.8125 H   0  0  0  0  0  0
   -4.5374   -9.4181   35.5416 H   0  0  0  0  0  0
   -3.1583  -10.1694   34.7069 H   0  0  0  0  0  0
   -3.3354  -10.3698   36.4439 H   0  0  0  0  0  0
   -7.1891  -14.1753   39.5982 H   0  0  0  0  0  0
   -5.5337  -14.5844   39.0878 H   0  0  0  0  0  0
   -6.8318  -14.5502   37.9039 H   0  0  0  0  0  0
   -8.1825  -11.9037   38.9417 H   0  0  0  0  0  0
   -7.8747  -12.2262   37.2197 H   0  0  0  0  0  0
   -7.2330  -10.7672   37.9935 H   0  0  0  0  0  0
   -4.0423  -12.4324   35.2338 H   0  0  0  0  0  0
  1  5  2  0  0  0
  1  9  1  0  0  0
  1 26  1  0  0  0
  2  6  1  0  0  0
  2  9  2  0  0  0
  2 27  1  0  0  0
  3  7  2  0  0  0
  3 10  1  0  0  0
  3 28  1  0  0  0
  4  8  1  0  0  0
  4 10  2  0  0  0
  4 29  1  0  0  0
  5 11  1  0  0  0
  5 30  1  0  0  0
  6 11  2  0  0  0
  6 31  1  0  0  0
  7 12  1  0  0  0
  7 32  1  0  0  0
  8 12  2  0  0  0
  8 33  1  0  0  0
  9 13  1  0  0  0
 10 13  1  0  0  0
 11 23  1  0  0  0
 12 25  1  0  0  0
 13 21  2  0  0  0
 14 20  1  0  0  0
 14 22  2  0  0  0
 14 24  1  0  0  0
 15 19  1  0  0  0
 15 34  1  0  0  0
 15 35  1  0  0  0
 15 36  1  0  0  0
 16 19  1  0  0  0
 16 37  1  0  0  0
 16 38  1  0  0  0
 16 39  1  0  0  0
 17 20  1  0  0  0
 17 40  1  0  0  0
 17 41  1  0  0  0
 17 42  1  0  0  0
 18 20  1  0  0  0
 18 43  1  0  0  0
 18 44  1  0  0  0
 18 45  1  0  0  0
 19 24  1  0  0  0
 19 46  1  0  0  0
 20 23  1  0  0  0
M  END
> <EON_Query>
60c

> <EON_ET_pb>
0.27

> <EON_ET_coul>
0.295

> <EON_ET_combo>
0.824

> <EON_ShapeTanimoto>
0.554

> <ROCS_ShapeQuery>
60c

> <ROCS_TanimotoCombo>
0.876

> <ROCS_ShapeTanimoto>
0.661

> <ROCS_ColorTanimoto>
0.215

> <ROCS_RefTversky>
0.738

> <ROCS_RefColorTversky>
0.306

> <ROCS_RefTverskyCombo>
1.044

> <ROCS_FitTversky>
0.863

> <ROCS_FitColorTversky>
0.421

> <ROCS_FitTverskyCombo>
1.284

> <ROCS_ColorScore>
-3.013

> <ROCS_Overlap>
961.91

> <ROCS_Rank>
155

> <EON_Rank>
26

> <i_qp_#stars>
0

> <i_qp_#amine>
0

> <i_qp_#amidine>
0

> <i_qp_#acid>
0

> <i_qp_#amide>
0

> <i_qp_#rotor>
6

> <i_qp_#rtvFG>
0

> <i_qp_CNS>
0

> <r_qp_mol_MW>
360.836

> <r_qp_dipole>
5.45509

> <r_qp_SASA>
655.71

> <r_qp_FOSA>
265.412

> <r_qp_FISA>
69.9304

> <r_qp_PISA>
248.822

> <r_qp_WPSA>
71.5456

> <r_qp_volume>
1178.35

> <r_qp_donorHB>
0

> <r_qp_accptHB>
4.75

> <r_qp_dip^2/V>
0.0252541

> <r_qp_ACxDN^.5/SA>
0

> <r_qp_glob>
0.822814

> <r_qp_QPpolrz>
39.527

> <r_qp_QPlogPC16>
11.9141

> <r_qp_QPlogPoct>
15.9296

> <r_qp_QPlogPw>
6.84554

> <r_qp_QPlogPo/w>
4.7497

> <r_qp_QPlogS>
-5.49087

> <r_qp_CIQPlogS>
-5.25193

> <r_qp_QPlogHERG>
-5.58568

> <r_qp_QPPCaco>
2151.54

> <r_qp_QPlogBB>
-0.311152

> <r_qp_QPPMDCK>
2792.16

> <r_qp_QPlogKp>
-1.35573

> <r_qp_IP(eV)>
9.70997

> <r_qp_EA(eV)>
0.741488

> <i_qp_#metab>
1

> <r_qp_QPlogKhsa>
0.513352

> <i_qp_HumanOralAbsorption>
3

> <r_qp_PercentHumanOralAbsorption>
100

> <r_qp_SAfluorine>
0

> <r_qp_SAamideO>
0

> <r_qp_PSA>
60.346

> <i_qp_#NandO>
4

> <i_qp_RuleOfFive>
0

> <i_qp_RuleOfThree>
0

> <i_qp_#ringatoms>
12

> <i_qp_#in34>
0

> <i_qp_#in56>
12

> <i_qp_#noncon>
0

> <i_qp_#nonHatm>
25

> <r_qp_Jm>
0.0513701

> <stars>
0

> <logP>
4.7497

> <Caco>
2151.54

> <MDCK>
2792.16

> <HumanOralAbsorption>
3

> <PercentHumanOralAbsorption>
100.0

> <RuleOfFive>
0

> <base>
fda.sdf

$$$$
Trimebutine.cdx_19
                    3D
 Schrodinger Suite 2022-3.
 58 59  0  0  1  0            999 V2000
   -4.0970  -11.0611   35.3616 C   0  0  0  0  0  0
   -4.3182  -12.1455   36.2105 C   0  0  0  0  0  0
   -4.4464   -9.7736   35.7693 C   0  0  0  0  0  0
   -4.8888  -11.9426   37.4671 C   0  0  0  0  0  0
   -5.0170   -9.5706   37.0258 C   0  0  0  0  0  0
   -8.0237   -6.3408   37.9791 C   0  0  0  0  0  0
   -7.0403   -4.4632   39.1386 C   0  0  0  0  0  0
   -7.0909   -5.8336   38.8836 C   0  0  0  0  0  0
   -5.2381  -10.6551   37.8748 C   0  0  0  0  0  0
   -8.9061   -5.4775   37.3295 C   0  0  0  0  0  0
   -7.9226   -3.5999   38.4891 C   0  0  0  0  0  0
   -8.8555   -4.1070   37.5846 C   0  0  0  0  0  0
   -6.1494   -6.7516   39.5733 C   0  0  0  0  0  0
   -3.8716  -11.5119   40.5346 C   0  0  0  0  0  0
   -7.8878  -11.7827   38.7201 C   0  0  0  0  0  0
   -7.9307  -10.1787   40.6244 C   0  0  0  0  0  0
   -9.7970   -7.3972   36.2447 C   0  0  0  0  0  0
   -6.8800   -1.8277   39.6842 C   0  0  0  0  0  0
   -9.2925   -2.7186   35.7039 C   0  0  0  0  0  0
   -5.3782  -11.4870   40.2892 C   0  0  0  0  0  0
   -5.5177   -9.0171   39.7826 C   0  0  0  0  0  0
   -5.8657  -10.4314   39.2558 C   0  0  1  0  0  0
   -7.3794  -10.4843   39.2660 N   0  3  0  0  0  0
   -5.3102   -6.3718   40.3751 O   0  0  0  0  0  0
   -9.8119   -5.9856   36.4480 O   0  0  0  0  0  0
   -7.8624   -2.2634   38.7467 O   0  0  0  0  0  0
   -9.7190   -3.2638   36.9503 O   0  0  0  0  0  0
   -6.3628   -8.0380   39.1856 O   0  0  0  0  0  0
   -3.6515  -11.2191   34.3838 H   0  0  0  0  0  0
   -4.0452  -13.1478   35.8937 H   0  0  0  0  0  0
   -4.2733   -8.9289   35.1091 H   0  0  0  0  0  0
   -5.0576  -12.7934   38.1218 H   0  0  0  0  0  0
   -5.2861   -8.5641   37.3349 H   0  0  0  0  0  0
   -8.0659   -7.4083   37.7757 H   0  0  0  0  0  0
   -6.3151   -4.0634   39.8437 H   0  0  0  0  0  0
   -3.4966  -10.5344   40.8504 H   0  0  0  0  0  0
   -3.6395  -12.2247   41.3329 H   0  0  0  0  0  0
   -3.3212  -11.8249   39.6428 H   0  0  0  0  0  0
   -7.4409  -11.9285   37.7349 H   0  0  0  0  0  0
   -7.5878  -12.5750   39.4085 H   0  0  0  0  0  0
   -8.9750  -11.7133   38.6512 H   0  0  0  0  0  0
   -7.5132   -9.2230   40.9468 H   0  0  0  0  0  0
   -9.0176  -10.1237   40.5393 H   0  0  0  0  0  0
   -7.6298  -10.9848   41.2962 H   0  0  0  0  0  0
  -10.5675   -7.6698   35.5194 H   0  0  0  0  0  0
   -9.9800   -7.9050   37.1949 H   0  0  0  0  0  0
   -8.8174   -7.6905   35.8598 H   0  0  0  0  0  0
   -6.9393   -0.7426   39.7974 H   0  0  0  0  0  0
   -5.8860   -2.1143   39.3315 H   0  0  0  0  0  0
   -7.0734   -2.3035   40.6486 H   0  0  0  0  0  0
  -10.0724   -2.0647   35.3055 H   0  0  0  0  0  0
   -9.0885   -3.5301   35.0009 H   0  0  0  0  0  0
   -8.3802   -2.1390   35.8630 H   0  0  0  0  0  0
   -5.6885  -12.4922   39.9770 H   0  0  0  0  0  0
   -5.8740  -11.3118   41.2536 H   0  0  0  0  0  0
   -5.6370   -8.9493   40.8693 H   0  0  0  0  0  0
   -4.4796   -8.7548   39.5462 H   0  0  0  0  0  0
   -7.6986   -9.7630   38.6513 H   0  0  0  0  0  0
  1  2  2  0  0  0
  1  3  1  0  0  0
  1 29  1  0  0  0
  2  4  1  0  0  0
  2 30  1  0  0  0
  3  5  2  0  0  0
  3 31  1  0  0  0
  4  9  2  0  0  0
  4 32  1  0  0  0
  5  9  1  0  0  0
  5 33  1  0  0  0
  6  8  2  0  0  0
  6 10  1  0  0  0
  6 34  1  0  0  0
  7  8  1  0  0  0
  7 11  2  0  0  0
  7 35  1  0  0  0
  8 13  1  0  0  0
  9 22  1  0  0  0
 10 12  2  0  0  0
 10 25  1  0  0  0
 11 12  1  0  0  0
 11 26  1  0  0  0
 12 27  1  0  0  0
 13 24  2  0  0  0
 13 28  1  0  0  0
 14 20  1  0  0  0
 14 36  1  0  0  0
 14 37  1  0  0  0
 14 38  1  0  0  0
 15 23  1  0  0  0
 15 39  1  0  0  0
 15 40  1  0  0  0
 15 41  1  0  0  0
 16 23  1  0  0  0
 16 42  1  0  0  0
 16 43  1  0  0  0
 16 44  1  0  0  0
 17 25  1  0  0  0
 17 45  1  0  0  0
 17 46  1  0  0  0
 17 47  1  0  0  0
 18 26  1  0  0  0
 18 48  1  0  0  0
 18 49  1  0  0  0
 18 50  1  0  0  0
 19 27  1  0  0  0
 19 51  1  0  0  0
 19 52  1  0  0  0
 19 53  1  0  0  0
 20 22  1  0  0  0
 20 54  1  0  0  0
 20 55  1  0  0  0
 21 22  1  0  0  0
 21 28  1  0  0  0
 21 56  1  0  0  0
 21 57  1  0  0  0
 22 23  1  0  0  0
 23 58  1  0  0  0
M  CHG  1  23   1
M  END
> <EON_Query>
60c

> <EON_ET_pb>
0.181

> <EON_ET_coul>
0.103

> <EON_ET_combo>
0.821

> <EON_ShapeTanimoto>
0.64

> <ROCS_ShapeQuery>
60c

> <ROCS_TanimotoCombo>
1.008

> <ROCS_ShapeTanimoto>
0.698

> <ROCS_ColorTanimoto>
0.31

> <ROCS_RefTversky>
0.801

> <ROCS_RefColorTversky>
0.452

> <ROCS_RefTverskyCombo>
1.253

> <ROCS_FitTversky>
0.844

> <ROCS_FitColorTversky>
0.497

> <ROCS_FitTverskyCombo>
1.342

> <ROCS_ColorScore>
-4.502

> <ROCS_Overlap>
1048.21

> <ROCS_Rank>
13

> <EON_Rank>
27

> <i_qp_#stars>
0

> <i_qp_#amine>
1

> <i_qp_#amidine>
0

> <i_qp_#acid>
0

> <i_qp_#amide>
0

> <i_qp_#rotor>
9

> <i_qp_#rtvFG>
1

> <i_qp_CNS>
1

> <r_qp_mol_MW>
387.475

> <r_qp_dipole>
3.56975

> <r_qp_SASA>
657.591

> <r_qp_FOSA>
443.307

> <r_qp_FISA>
40.3106

> <r_qp_PISA>
173.973

> <r_qp_WPSA>
0

> <r_qp_volume>
1238.26

> <r_qp_donorHB>
0

> <r_qp_accptHB>
5.25

> <r_qp_dip^2/V>
0.0102912

> <r_qp_ACxDN^.5/SA>
0

> <r_qp_glob>
0.848041

> <r_qp_QPpolrz>
39.2837

> <r_qp_QPlogPC16>
11.2274

> <r_qp_QPlogPoct>
15.305

> <r_qp_QPlogPw>
5.94508

> <r_qp_QPlogPo/w>
4.21449

> <r_qp_QPlogS>
-3.24495

> <r_qp_CIQPlogS>
-4.53764

> <r_qp_QPlogHERG>
-5.54668

> <r_qp_QPPCaco>
1024.55

> <r_qp_QPlogBB>
0.0459303

> <r_qp_QPPMDCK>
561.845

> <r_qp_QPlogKp>
-2.84808

> <r_qp_IP(eV)>
9.19047

> <r_qp_EA(eV)>
0.460143

> <i_qp_#metab>
5

> <r_qp_QPlogKhsa>
0.426153

> <i_qp_HumanOralAbsorption>
3

> <r_qp_PercentHumanOralAbsorption>
100

> <r_qp_SAfluorine>
0

> <r_qp_SAamideO>
0

> <r_qp_PSA>
58.5364

> <i_qp_#NandO>
6

> <i_qp_RuleOfFive>
0

> <i_qp_RuleOfThree>
0

> <i_qp_#ringatoms>
12

> <i_qp_#in34>
0

> <i_qp_#in56>
12

> <i_qp_#noncon>
0

> <i_qp_#nonHatm>
28

> <r_qp_Jm>
0.312763

> <stars>
0

> <logP>
4.21449

> <Caco>
1024.55

> <MDCK>
561.845

> <HumanOralAbsorption>
3

> <PercentHumanOralAbsorption>
100.0

> <RuleOfFive>
0

> <base>
fda.sdf

$$$$
S5507 Trimebutine maleate.cdx_19
                    3D
 Schrodinger Suite 2022-3.
 58 59  0  0  1  0            999 V2000
   -4.0970  -11.0611   35.3616 C   0  0  0  0  0  0
   -4.3182  -12.1455   36.2105 C   0  0  0  0  0  0
   -4.4464   -9.7736   35.7693 C   0  0  0  0  0  0
   -4.8888  -11.9426   37.4671 C   0  0  0  0  0  0
   -5.0170   -9.5706   37.0258 C   0  0  0  0  0  0
   -8.0237   -6.3408   37.9791 C   0  0  0  0  0  0
   -7.0403   -4.4632   39.1386 C   0  0  0  0  0  0
   -7.0909   -5.8336   38.8836 C   0  0  0  0  0  0
   -5.2381  -10.6551   37.8748 C   0  0  0  0  0  0
   -8.9061   -5.4775   37.3295 C   0  0  0  0  0  0
   -7.9226   -3.5999   38.4891 C   0  0  0  0  0  0
   -8.8555   -4.1070   37.5846 C   0  0  0  0  0  0
   -6.1494   -6.7516   39.5733 C   0  0  0  0  0  0
   -3.8716  -11.5119   40.5346 C   0  0  0  0  0  0
   -7.8878  -11.7827   38.7201 C   0  0  0  0  0  0
   -7.9307  -10.1787   40.6244 C   0  0  0  0  0  0
   -9.7970   -7.3972   36.2447 C   0  0  0  0  0  0
   -6.8800   -1.8277   39.6842 C   0  0  0  0  0  0
   -9.2925   -2.7186   35.7039 C   0  0  0  0  0  0
   -5.3782  -11.4870   40.2892 C   0  0  0  0  0  0
   -5.5177   -9.0171   39.7826 C   0  0  0  0  0  0
   -5.8657  -10.4314   39.2558 C   0  0  1  0  0  0
   -7.3794  -10.4843   39.2660 N   0  3  0  0  0  0
   -5.3102   -6.3718   40.3751 O   0  0  0  0  0  0
   -9.8119   -5.9856   36.4480 O   0  0  0  0  0  0
   -7.8624   -2.2634   38.7467 O   0  0  0  0  0  0
   -9.7190   -3.2638   36.9503 O   0  0  0  0  0  0
   -6.3628   -8.0380   39.1856 O   0  0  0  0  0  0
   -3.6515  -11.2191   34.3838 H   0  0  0  0  0  0
   -4.0452  -13.1478   35.8937 H   0  0  0  0  0  0
   -4.2733   -8.9289   35.1091 H   0  0  0  0  0  0
   -5.0576  -12.7934   38.1218 H   0  0  0  0  0  0
   -5.2861   -8.5641   37.3349 H   0  0  0  0  0  0
   -8.0659   -7.4083   37.7757 H   0  0  0  0  0  0
   -6.3151   -4.0634   39.8437 H   0  0  0  0  0  0
   -3.4966  -10.5344   40.8504 H   0  0  0  0  0  0
   -3.6395  -12.2247   41.3329 H   0  0  0  0  0  0
   -3.3212  -11.8249   39.6428 H   0  0  0  0  0  0
   -7.4409  -11.9285   37.7349 H   0  0  0  0  0  0
   -7.5878  -12.5750   39.4085 H   0  0  0  0  0  0
   -8.9750  -11.7133   38.6512 H   0  0  0  0  0  0
   -7.5132   -9.2230   40.9468 H   0  0  0  0  0  0
   -9.0176  -10.1237   40.5393 H   0  0  0  0  0  0
   -7.6298  -10.9848   41.2962 H   0  0  0  0  0  0
  -10.5675   -7.6698   35.5194 H   0  0  0  0  0  0
   -9.9800   -7.9050   37.1949 H   0  0  0  0  0  0
   -8.8174   -7.6905   35.8598 H   0  0  0  0  0  0
   -6.9393   -0.7426   39.7974 H   0  0  0  0  0  0
   -5.8860   -2.1143   39.3315 H   0  0  0  0  0  0
   -7.0734   -2.3035   40.6486 H   0  0  0  0  0  0
  -10.0724   -2.0647   35.3055 H   0  0  0  0  0  0
   -9.0885   -3.5301   35.0009 H   0  0  0  0  0  0
   -8.3802   -2.1390   35.8630 H   0  0  0  0  0  0
   -5.6885  -12.4922   39.9770 H   0  0  0  0  0  0
   -5.8740  -11.3118   41.2536 H   0  0  0  0  0  0
   -5.6370   -8.9493   40.8693 H   0  0  0  0  0  0
   -4.4796   -8.7548   39.5462 H   0  0  0  0  0  0
   -7.6986   -9.7630   38.6513 H   0  0  0  0  0  0
  1  2  2  0  0  0
  1  3  1  0  0  0
  1 29  1  0  0  0
  2  4  1  0  0  0
  2 30  1  0  0  0
  3  5  2  0  0  0
  3 31  1  0  0  0
  4  9  2  0  0  0
  4 32  1  0  0  0
  5  9  1  0  0  0
  5 33  1  0  0  0
  6  8  2  0  0  0
  6 10  1  0  0  0
  6 34  1  0  0  0
  7  8  1  0  0  0
  7 11  2  0  0  0
  7 35  1  0  0  0
  8 13  1  0  0  0
  9 22  1  0  0  0
 10 12  2  0  0  0
 10 25  1  0  0  0
 11 12  1  0  0  0
 11 26  1  0  0  0
 12 27  1  0  0  0
 13 24  2  0  0  0
 13 28  1  0  0  0
 14 20  1  0  0  0
 14 36  1  0  0  0
 14 37  1  0  0  0
 14 38  1  0  0  0
 15 23  1  0  0  0
 15 39  1  0  0  0
 15 40  1  0  0  0
 15 41  1  0  0  0
 16 23  1  0  0  0
 16 42  1  0  0  0
 16 43  1  0  0  0
 16 44  1  0  0  0
 17 25  1  0  0  0
 17 45  1  0  0  0
 17 46  1  0  0  0
 17 47  1  0  0  0
 18 26  1  0  0  0
 18 48  1  0  0  0
 18 49  1  0  0  0
 18 50  1  0  0  0
 19 27  1  0  0  0
 19 51  1  0  0  0
 19 52  1  0  0  0
 19 53  1  0  0  0
 20 22  1  0  0  0
 20 54  1  0  0  0
 20 55  1  0  0  0
 21 22  1  0  0  0
 21 28  1  0  0  0
 21 56  1  0  0  0
 21 57  1  0  0  0
 22 23  1  0  0  0
 23 58  1  0  0  0
M  CHG  1  23   1
M  END
> <EON_Query>
60c

> <EON_ET_pb>
0.181

> <EON_ET_coul>
0.103

> <EON_ET_combo>
0.821

> <EON_ShapeTanimoto>
0.64

> <ROCS_ShapeQuery>
60c

> <ROCS_TanimotoCombo>
1.008

> <ROCS_ShapeTanimoto>
0.698

> <ROCS_ColorTanimoto>
0.31

> <ROCS_RefTversky>
0.801

> <ROCS_RefColorTversky>
0.452

> <ROCS_RefTverskyCombo>
1.253

> <ROCS_FitTversky>
0.844

> <ROCS_FitColorTversky>
0.497

> <ROCS_FitTverskyCombo>
1.342

> <ROCS_ColorScore>
-4.502

> <ROCS_Overlap>
1048.21

> <ROCS_Rank>
14

> <EON_Rank>
28

> <i_qp_#stars>
0

> <i_qp_#amine>
1

> <i_qp_#amidine>
0

> <i_qp_#acid>
0

> <i_qp_#amide>
0

> <i_qp_#rotor>
9

> <i_qp_#rtvFG>
1

> <i_qp_CNS>
1

> <r_qp_mol_MW>
387.475

> <r_qp_dipole>
3.56975

> <r_qp_SASA>
657.591

> <r_qp_FOSA>
443.307

> <r_qp_FISA>
40.3106

> <r_qp_PISA>
173.973

> <r_qp_WPSA>
0

> <r_qp_volume>
1238.26

> <r_qp_donorHB>
0

> <r_qp_accptHB>
5.25

> <r_qp_dip^2/V>
0.0102912

> <r_qp_ACxDN^.5/SA>
0

> <r_qp_glob>
0.848041

> <r_qp_QPpolrz>
39.2837

> <r_qp_QPlogPC16>
11.2274

> <r_qp_QPlogPoct>
15.305

> <r_qp_QPlogPw>
5.94508

> <r_qp_QPlogPo/w>
4.21449

> <r_qp_QPlogS>
-3.24495

> <r_qp_CIQPlogS>
-4.53764

> <r_qp_QPlogHERG>
-5.54668

> <r_qp_QPPCaco>
1024.55

> <r_qp_QPlogBB>
0.0459303

> <r_qp_QPPMDCK>
561.845

> <r_qp_QPlogKp>
-2.84808

> <r_qp_IP(eV)>
9.19047

> <r_qp_EA(eV)>
0.460143

> <i_qp_#metab>
5

> <r_qp_QPlogKhsa>
0.426153

> <i_qp_HumanOralAbsorption>
3

> <r_qp_PercentHumanOralAbsorption>
100

> <r_qp_SAfluorine>
0

> <r_qp_SAamideO>
0

> <r_qp_PSA>
58.5364

> <i_qp_#NandO>
6

> <i_qp_RuleOfFive>
0

> <i_qp_RuleOfThree>
0

> <i_qp_#ringatoms>
12

> <i_qp_#in34>
0

> <i_qp_#in56>
12

> <i_qp_#noncon>
0

> <i_qp_#nonHatm>
28

> <r_qp_Jm>
0.312763

> <stars>
0

> <logP>
4.21449

> <Caco>
1024.55

> <MDCK>
561.845

> <HumanOralAbsorption>
3

> <PercentHumanOralAbsorption>
100.0

> <RuleOfFive>
0

> <base>
fda.sdf

$$$$
Combretastatin A4.cdx_1
                    3D
 Schrodinger Suite 2022-3.
 43 44  0  0  1  0            999 V2000
   -5.6285   -9.2197   38.6646 C   0  0  0  0  0  0
   -5.1748   -9.6138   37.4059 C   0  0  0  0  0  0
   -4.8180   -6.9808   38.2560 C   0  0  0  0  0  0
   -7.3632   -4.3319   39.5786 C   0  0  0  0  0  0
   -8.2840   -6.3470   38.6150 C   0  0  0  0  0  0
   -5.4502   -7.9032   39.0896 C   0  0  0  0  0  0
   -7.5078   -5.7192   39.5892 C   0  0  0  0  0  0
   -4.5426   -8.6913   36.5721 C   0  0  0  0  0  0
   -4.3642   -7.3748   36.9972 C   0  0  0  0  0  0
   -7.9949   -3.5724   38.5939 C   0  0  0  0  0  0
   -8.9157   -5.5875   37.6303 C   0  0  0  0  0  0
   -8.7712   -4.2002   37.6196 C   0  0  0  0  0  0
   -5.9258   -7.4920   40.4012 C   0  0  0  0  0  0
   -6.8412   -6.5209   40.6305 C   0  0  0  0  0  0
   -4.3259  -10.4518   34.9880 C   0  0  0  0  0  0
   -7.0354   -1.6564   39.6254 C   0  0  0  0  0  0
   -9.7675   -7.6334   36.7674 C   0  0  0  0  0  0
   -8.6577   -3.2178   35.4569 C   0  0  0  0  0  0
   -3.7473   -6.4658   36.1916 O   0  0  0  0  0  0
   -4.1041   -9.0889   35.3453 O   0  0  0  0  0  0
   -7.8454   -2.2185   38.5947 O   0  0  0  0  0  0
   -9.6715   -6.2128   36.6850 O   0  0  0  0  0  0
   -9.3887   -3.4578   36.6571 O   0  0  0  0  0  0
   -6.1205   -9.9496   39.3029 H   0  0  0  0  0  0
   -5.3167  -10.6410   37.0810 H   0  0  0  0  0  0
   -4.6751   -5.9519   38.5792 H   0  0  0  0  0  0
   -6.7597   -3.8343   40.3347 H   0  0  0  0  0  0
   -8.4020   -7.4284   38.6164 H   0  0  0  0  0  0
   -5.5195   -8.0466   41.2542 H   0  0  0  0  0  0
   -7.1092   -6.2629   41.6523 H   0  0  0  0  0  0
   -3.9287  -10.6361   33.9868 H   0  0  0  0  0  0
   -5.3975  -10.6658   35.0115 H   0  0  0  0  0  0
   -3.8120  -11.0956   35.7056 H   0  0  0  0  0  0
   -6.9995   -0.5703   39.5102 H   0  0  0  0  0  0
   -6.0267   -2.0732   39.5656 H   0  0  0  0  0  0
   -7.4726   -1.9035   40.5957 H   0  0  0  0  0  0
  -10.3983   -8.0044   35.9558 H   0  0  0  0  0  0
  -10.1948   -7.9152   37.7331 H   0  0  0  0  0  0
   -8.7674   -8.0632   36.6743 H   0  0  0  0  0  0
   -9.2631   -2.6152   34.7751 H   0  0  0  0  0  0
   -8.4020   -4.1713   34.9881 H   0  0  0  0  0  0
   -7.7406   -2.6766   35.7013 H   0  0  0  0  0  0
   -3.7026   -5.6029   36.6327 H   0  0  0  0  0  0
  1  2  2  0  0  0
  1  6  1  0  0  0
  1 24  1  0  0  0
  2  8  1  0  0  0
  2 25  1  0  0  0
  3  6  2  0  0  0
  3  9  1  0  0  0
  3 26  1  0  0  0
  4  7  2  0  0  0
  4 10  1  0  0  0
  4 27  1  0  0  0
  5  7  1  0  0  0
  5 11  2  0  0  0
  5 28  1  0  0  0
  6 13  1  0  0  0
  7 14  1  0  0  0
  8  9  2  0  0  0
  8 20  1  0  0  0
  9 19  1  0  0  0
 10 12  2  0  0  0
 10 21  1  0  0  0
 11 12  1  0  0  0
 11 22  1  0  0  0
 12 23  1  0  0  0
 13 14  2  0  0  0
 13 29  1  0  0  0
 14 30  1  0  0  0
 15 20  1  0  0  0
 15 31  1  0  0  0
 15 32  1  0  0  0
 15 33  1  0  0  0
 16 21  1  0  0  0
 16 34  1  0  0  0
 16 35  1  0  0  0
 16 36  1  0  0  0
 17 22  1  0  0  0
 17 37  1  0  0  0
 17 38  1  0  0  0
 17 39  1  0  0  0
 18 23  1  0  0  0
 18 40  1  0  0  0
 18 41  1  0  0  0
 18 42  1  0  0  0
 19 43  1  0  0  0
M  END
> <EON_Query>
60c

> <EON_ET_pb>
0.138

> <EON_ET_coul>
0.127

> <EON_ET_combo>
0.82

> <EON_ShapeTanimoto>
0.683

> <ROCS_ShapeQuery>
60c

> <ROCS_TanimotoCombo>
0.874

> <ROCS_ShapeTanimoto>
0.592

> <ROCS_ColorTanimoto>
0.282

> <ROCS_RefTversky>
0.67

> <ROCS_RefColorTversky>
0.4

> <ROCS_RefTverskyCombo>
1.07

> <ROCS_FitTversky>
0.836

> <ROCS_FitColorTversky>
0.488

> <ROCS_FitTverskyCombo>
1.325

> <ROCS_ColorScore>
-3.957

> <ROCS_Overlap>
870.268

> <ROCS_Rank>
166

> <EON_Rank>
29

> <i_qp_#stars>
0

> <i_qp_#amine>
0

> <i_qp_#amidine>
0

> <i_qp_#acid>
0

> <i_qp_#amide>
0

> <i_qp_#rotor>
8

> <i_qp_#rtvFG>
0

> <i_qp_CNS>
0

> <r_qp_mol_MW>
316.353

> <r_qp_dipole>
4.02411

> <r_qp_SASA>
553.665

> <r_qp_FOSA>
383.279

> <r_qp_FISA>
46.9362

> <r_qp_PISA>
123.45

> <r_qp_WPSA>
0

> <r_qp_volume>
1006.66

> <r_qp_donorHB>
1

> <r_qp_accptHB>
3.75

> <r_qp_dip^2/V>
0.0160863

> <r_qp_ACxDN^.5/SA>
0.00677305

> <r_qp_glob>
0.877352

> <r_qp_QPpolrz>
30.1747

> <r_qp_QPlogPC16>
9.09332

> <r_qp_QPlogPoct>
12.8401

> <r_qp_QPlogPw>
5.60409

> <r_qp_QPlogPo/w>
3.91415

> <r_qp_QPlogS>
-3.83343

> <r_qp_CIQPlogS>
-4.85588

> <r_qp_QPlogHERG>
-4.1053

> <r_qp_QPPCaco>
3554.71

> <r_qp_QPlogBB>
-0.32514

> <r_qp_QPPMDCK>
1948.52

> <r_qp_QPlogKp>
-1.18158

> <r_qp_IP(eV)>
8.71063

> <r_qp_EA(eV)>
0.150949

> <i_qp_#metab>
5

> <r_qp_QPlogKhsa>
0.306516

> <i_qp_HumanOralAbsorption>
3

> <r_qp_PercentHumanOralAbsorption>
100

> <r_qp_SAfluorine>
0

> <r_qp_SAamideO>
0

> <r_qp_PSA>
54.5115

> <i_qp_#NandO>
5

> <i_qp_RuleOfFive>
0

> <i_qp_RuleOfThree>
0

> <i_qp_#ringatoms>
12

> <i_qp_#in34>
0

> <i_qp_#in56>
12

> <i_qp_#noncon>
0

> <i_qp_#nonHatm>
23

> <r_qp_Jm>
3.98031

> <stars>
0

> <logP>
3.91415

> <Caco>
3554.71

> <MDCK>
1948.52

> <HumanOralAbsorption>
3

> <PercentHumanOralAbsorption>
100.0

> <RuleOfFive>
0

> <base>
fda.sdf

$$$$
4891_5
                    3D
 Schrodinger Suite 2022-3.
 47 50  0  0  1  0            999 V2000
   -9.8687   -3.8753   35.4377 C   0  0  0  0  0  0
   -9.7548   -5.2431   35.2125 C   0  0  0  0  0  0
   -9.4079   -3.3302   36.6331 C   0  0  0  0  0  0
   -9.1793   -6.0682   36.1815 C   0  0  0  0  0  0
   -8.8146   -4.1502   37.6032 C   0  0  0  0  0  0
   -8.6885   -5.5363   37.3845 C   0  0  0  0  0  0
   -6.7216   -6.4491   40.5283 C   0  0  0  0  0  0
   -5.9150   -9.5391   38.8421 C   0  0  0  0  0  0
   -8.3485   -3.5592   38.9049 C   0  0  0  0  0  0
   -6.9361   -7.9458   40.4288 C   0  0  0  0  0  0
   -4.0456  -11.1976   35.3194 C   0  0  0  0  0  0
   -4.1629   -9.6799   35.4230 C   0  0  0  0  0  0
   -5.2856  -11.8952   35.8701 C   0  0  0  0  0  0
   -4.4659   -9.2347   36.8513 C   0  0  0  0  0  0
   -5.5915  -11.4551   37.2993 C   0  0  0  0  0  0
   -7.1025   -4.2850   39.3821 C   0  0  0  0  0  0
   -7.2871   -7.6127   37.9672 C   0  0  0  0  0  0
   -8.1217   -6.4303   38.4783 C   0  0  1  0  0  0
   -5.7076   -9.9332   37.4099 C   0  0  0  0  0  0
   -7.3232   -5.7227   39.4986 N   0  0  0  0  0  0
   -6.6865   -8.3932   39.0595 N   0  0  0  0  0  0
   -6.1477   -5.9566   41.4991 O   0  0  0  0  0  0
   -5.4145  -10.2211   39.7394 O   0  0  0  0  0  0
  -10.3174   -3.2353   34.6848 H   0  0  0  0  0  0
  -10.1095   -5.6723   34.2789 H   0  0  0  0  0  0
   -9.5190   -2.2634   36.8093 H   0  0  0  0  0  0
   -9.1125   -7.1377   35.9875 H   0  0  0  0  0  0
   -8.1382   -2.4955   38.7496 H   0  0  0  0  0  0
   -9.1286   -3.6468   39.6676 H   0  0  0  0  0  0
   -6.2698   -8.4477   41.1213 H   0  0  0  0  0  0
   -7.9676   -8.1768   40.6768 H   0  0  0  0  0  0
   -3.9006  -11.4825   34.2699 H   0  0  0  0  0  0
   -3.1587  -11.5363   35.8672 H   0  0  0  0  0  0
   -3.2283   -9.2193   35.0838 H   0  0  0  0  0  0
   -4.9529   -9.3260   34.7524 H   0  0  0  0  0  0
   -6.1451  -11.6712   35.2279 H   0  0  0  0  0  0
   -5.1420  -12.9814   35.8340 H   0  0  0  0  0  0
   -3.5992   -9.4244   37.4815 H   0  0  0  0  0  0
   -4.6488   -8.1603   36.8506 H   0  0  0  0  0  0
   -6.5402  -11.8969   37.6084 H   0  0  0  0  0  0
   -4.8173  -11.8314   37.9680 H   0  0  0  0  0  0
   -6.2664   -4.0882   38.6961 H   0  0  0  0  0  0
   -6.7916   -3.9267   40.3756 H   0  0  0  0  0  0
   -7.8941   -8.2857   37.3550 H   0  0  0  0  0  0
   -6.4606   -7.2540   37.3427 H   0  0  0  0  0  0
   -8.9937   -6.8291   39.0578 H   0  0  0  0  0  0
   -6.5820   -9.6002   36.8720 H   0  0  0  0  0  0
  1  2  2  0  0  0
  1  3  1  0  0  0
  1 24  1  0  0  0
  2  4  1  0  0  0
  2 25  1  0  0  0
  3  5  2  0  0  0
  3 26  1  0  0  0
  4  6  2  0  0  0
  4 27  1  0  0  0
  5  6  1  0  0  0
  5  9  1  0  0  0
  6 18  1  0  0  0
  7 10  1  0  0  0
  7 20  1  0  0  0
  7 22  2  0  0  0
  8 19  1  0  0  0
  8 21  1  0  0  0
  8 23  2  0  0  0
  9 16  1  0  0  0
  9 28  1  0  0  0
  9 29  1  0  0  0
 10 21  1  0  0  0
 10 30  1  0  0  0
 10 31  1  0  0  0
 11 12  1  0  0  0
 11 13  1  0  0  0
 11 32  1  0  0  0
 11 33  1  0  0  0
 12 14  1  0  0  0
 12 34  1  0  0  0
 12 35  1  0  0  0
 13 15  1  0  0  0
 13 36  1  0  0  0
 13 37  1  0  0  0
 14 19  1  0  0  0
 14 38  1  0  0  0
 14 39  1  0  0  0
 15 19  1  0  0  0
 15 40  1  0  0  0
 15 41  1  0  0  0
 16 20  1  0  0  0
 16 42  1  0  0  0
 16 43  1  0  0  0
 17 18  1  0  0  0
 17 21  1  0  0  0
 17 44  1  0  0  0
 17 45  1  0  0  0
 18 20  1  0  0  0
 18 46  1  0  0  0
 19 47  1  0  0  0
M  END
> <EON_Query>
60c

> <EON_ET_pb>
0.158

> <EON_ET_coul>
0.125

> <EON_ET_combo>
0.809

> <EON_ShapeTanimoto>
0.651

> <ROCS_ShapeQuery>
60c

> <ROCS_TanimotoCombo>
0.958

> <ROCS_ShapeTanimoto>
0.725

> <ROCS_ColorTanimoto>
0.232

> <ROCS_RefTversky>
0.761

> <ROCS_RefColorTversky>
0.308

> <ROCS_RefTverskyCombo>
1.069

> <ROCS_FitTversky>
0.939

> <ROCS_FitColorTversky>
0.486

> <ROCS_FitTverskyCombo>
1.425

> <ROCS_ColorScore>
-3.018

> <ROCS_Overlap>
988.831

> <ROCS_Rank>
25

> <EON_Rank>
35

> <i_qp_#stars>
0

> <i_qp_#amine>
0

> <i_qp_#amidine>
0

> <i_qp_#acid>
0

> <i_qp_#amide>
2

> <i_qp_#rotor>
1

> <i_qp_#rtvFG>
0

> <i_qp_CNS>
0

> <r_qp_mol_MW>
312.411

> <r_qp_dipole>
8.16941

> <r_qp_SASA>
583.939

> <r_qp_FOSA>
353.581

> <r_qp_FISA>
80.246

> <r_qp_PISA>
150.112

> <r_qp_WPSA>
0

> <r_qp_volume>
1040.66

> <r_qp_donorHB>
0

> <r_qp_accptHB>
6

> <r_qp_dip^2/V>
0.0641318

> <r_qp_ACxDN^.5/SA>
0

> <r_qp_glob>
0.85049

> <r_qp_QPpolrz>
36.2846

> <r_qp_QPlogPC16>
9.51887

> <r_qp_QPlogPoct>
15.7646

> <r_qp_QPlogPw>
13.0469

> <r_qp_QPlogPo/w>
1.53155

> <r_qp_QPlogS>
-1.89145

> <r_qp_CIQPlogS>
-2.12887

> <r_qp_QPlogHERG>
-1.9183

> <r_qp_QPPCaco>
540.765

> <r_qp_QPlogBB>
-0.236395

> <r_qp_QPPMDCK>
887.724

> <r_qp_QPlogKp>
-2.37362

> <r_qp_IP(eV)>
9.47715

> <r_qp_EA(eV)>
0.232114

> <i_qp_#metab>
5

> <r_qp_QPlogKhsa>
-0.651832

> <i_qp_HumanOralAbsorption>
3

> <r_qp_PercentHumanOralAbsorption>
84.8288

> <r_qp_SAfluorine>
0

> <r_qp_SAamideO>
63.055

> <r_qp_PSA>
57.2662

> <i_qp_#NandO>
4

> <i_qp_RuleOfFive>
0

> <i_qp_RuleOfThree>
0

> <i_qp_#ringatoms>
20

> <i_qp_#in34>
0

> <i_qp_#in56>
20

> <i_qp_#noncon>
11

> <i_qp_#nonHatm>
23

> <r_qp_Jm>
16.9689

> <stars>
0

> <logP>
1.53155

> <Caco>
540.765

> <MDCK>
887.724

> <HumanOralAbsorption>
3

> <PercentHumanOralAbsorption>
84.8288

> <RuleOfFive>
0

> <base>
fda.sdf

$$$$
BILTRICIDE (praziquantel).cdx_22
                    3D
 Schrodinger Suite 2022-3.
 47 50  0  0  1  0            999 V2000
   -4.4973  -10.9609   34.9992 C   0  0  0  0  0  0
   -5.2719   -9.8093   35.0988 C   0  0  0  0  0  0
   -4.2421  -11.7273   36.1349 C   0  0  0  0  0  0
   -5.7803   -9.4150   36.3368 C   0  0  0  0  0  0
   -4.7634  -11.3472   37.3795 C   0  0  0  0  0  0
   -5.5179  -10.1655   37.4949 C   0  0  0  0  0  0
   -6.0481  -10.2927   41.2631 C   0  0  0  0  0  0
   -6.4607   -6.5168   40.5515 C   0  0  0  0  0  0
   -4.4933  -12.1894   38.5957 C   0  0  0  0  0  0
   -6.3245   -8.8222   41.5388 C   0  0  0  0  0  0
   -8.8830   -4.3444   37.7109 C   0  0  0  0  0  0
   -8.6081   -5.8204   37.4396 C   0  0  0  0  0  0
   -7.6601   -3.6441   38.2955 C   0  0  0  0  0  0
   -8.0977   -6.5368   38.6870 C   0  0  0  0  0  0
   -7.1471   -4.3554   39.5447 C   0  0  0  0  0  0
   -5.6404  -12.0626   39.5872 C   0  0  0  0  0  0
   -5.4635   -8.3629   39.2507 C   0  0  0  0  0  0
   -6.0658   -9.7039   38.8366 C   0  0  2  0  0  0
   -6.8722   -5.8373   39.2792 C   0  0  0  0  0  0
   -5.8632  -10.6616   39.9351 N   0  0  0  0  0  0
   -6.1362   -7.8733   40.4477 N   0  0  0  0  0  0
   -6.0385  -11.0848   42.2094 O   0  0  0  0  0  0
   -6.4212   -5.8700   41.6005 O   0  0  0  0  0  0
   -4.0939  -11.2637   34.0376 H   0  0  0  0  0  0
   -5.4773   -9.2140   34.2138 H   0  0  0  0  0  0
   -3.6393  -12.6277   36.0438 H   0  0  0  0  0  0
   -6.3831   -8.5110   36.3947 H   0  0  0  0  0  0
   -4.3776  -13.2428   38.3163 H   0  0  0  0  0  0
   -3.5542  -11.8532   39.0513 H   0  0  0  0  0  0
   -7.3842   -8.7238   41.8874 H   0  0  0  0  0  0
   -5.7027   -8.5125   42.4178 H   0  0  0  0  0  0
   -9.1773   -3.8493   36.7771 H   0  0  0  0  0  0
   -9.7278   -4.2485   38.4026 H   0  0  0  0  0  0
   -9.5272   -6.3024   37.0878 H   0  0  0  0  0  0
   -7.8721   -5.9148   36.6344 H   0  0  0  0  0  0
   -6.8644   -3.6111   37.5422 H   0  0  0  0  0  0
   -7.9112   -2.6035   38.5320 H   0  0  0  0  0  0
   -8.8984   -6.6012   39.4212 H   0  0  0  0  0  0
   -7.8133   -7.5530   38.4142 H   0  0  0  0  0  0
   -6.2159   -3.8830   39.8617 H   0  0  0  0  0  0
   -7.8700   -4.2369   40.3519 H   0  0  0  0  0  0
   -6.5752  -12.4409   39.1605 H   0  0  0  0  0  0
   -5.4257  -12.6442   40.4872 H   0  0  0  0  0  0
   -4.4111   -8.4764   39.4949 H   0  0  0  0  0  0
   -5.5648   -7.6262   38.4630 H   0  0  0  0  0  0
   -7.1566   -9.6072   38.7343 H   0  0  0  0  0  0
   -6.0392   -5.9312   38.5994 H   0  0  0  0  0  0
  1  2  2  0  0  0
  1  3  1  0  0  0
  1 24  1  0  0  0
  2  4  1  0  0  0
  2 25  1  0  0  0
  3  5  2  0  0  0
  3 26  1  0  0  0
  4  6  2  0  0  0
  4 27  1  0  0  0
  5  6  1  0  0  0
  5  9  1  0  0  0
  6 18  1  0  0  0
  7 10  1  0  0  0
  7 20  1  0  0  0
  7 22  2  0  0  0
  8 19  1  0  0  0
  8 21  1  0  0  0
  8 23  2  0  0  0
  9 16  1  0  0  0
  9 28  1  0  0  0
  9 29  1  0  0  0
 10 21  1  0  0  0
 10 30  1  0  0  0
 10 31  1  0  0  0
 11 12  1  0  0  0
 11 13  1  0  0  0
 11 32  1  0  0  0
 11 33  1  0  0  0
 12 14  1  0  0  0
 12 34  1  0  0  0
 12 35  1  0  0  0
 13 15  1  0  0  0
 13 36  1  0  0  0
 13 37  1  0  0  0
 14 19  1  0  0  0
 14 38  1  0  0  0
 14 39  1  0  0  0
 15 19  1  0  0  0
 15 40  1  0  0  0
 15 41  1  0  0  0
 16 20  1  0  0  0
 16 42  1  0  0  0
 16 43  1  0  0  0
 17 18  1  0  0  0
 17 21  1  0  0  0
 17 44  1  0  0  0
 17 45  1  0  0  0
 18 20  1  0  0  0
 18 46  1  0  0  0
 19 47  1  0  0  0
M  END
> <EON_Query>
60c

> <EON_ET_pb>
0.176

> <EON_ET_coul>
0.174

> <EON_ET_combo>
0.781

> <EON_ShapeTanimoto>
0.605

> <ROCS_ShapeQuery>
60c

> <ROCS_TanimotoCombo>
1.029

> <ROCS_ShapeTanimoto>
0.715

> <ROCS_ColorTanimoto>
0.314

> <ROCS_RefTversky>
0.755

> <ROCS_RefColorTversky>
0.391

> <ROCS_RefTverskyCombo>
1.145

> <ROCS_FitTversky>
0.932

> <ROCS_FitColorTversky>
0.617

> <ROCS_FitTverskyCombo>
1.548

> <ROCS_ColorScore>
-3.831

> <ROCS_Overlap>
980.586

> <ROCS_Rank>
9

> <EON_Rank>
43

> <i_qp_#stars>
0

> <i_qp_#amine>
0

> <i_qp_#amidine>
0

> <i_qp_#acid>
0

> <i_qp_#amide>
2

> <i_qp_#rotor>
1

> <i_qp_#rtvFG>
0

> <i_qp_CNS>
0

> <r_qp_mol_MW>
312.411

> <r_qp_dipole>
7.79633

> <r_qp_SASA>
565.114

> <r_qp_FOSA>
341.016

> <r_qp_FISA>
81.6997

> <r_qp_PISA>
142.398

> <r_qp_WPSA>
0

> <r_qp_volume>
1023.55

> <r_qp_donorHB>
0

> <r_qp_accptHB>
6

> <r_qp_dip^2/V>
0.0593844

> <r_qp_ACxDN^.5/SA>
0

> <r_qp_glob>
0.869164

> <r_qp_QPpolrz>
35.5262

> <r_qp_QPlogPC16>
9.37132

> <r_qp_QPlogPoct>
15.4853

> <r_qp_QPlogPw>
13.0597

> <r_qp_QPlogPo/w>
1.40083

> <r_qp_QPlogS>
-1.48968

> <r_qp_CIQPlogS>
-2.12887

> <r_qp_QPlogHERG>
-1.57936

> <r_qp_QPPCaco>
510.969

> <r_qp_QPlogBB>
-0.217784

> <r_qp_QPPMDCK>
857.785

> <r_qp_QPlogKp>
-2.42759

> <r_qp_IP(eV)>
9.41041

> <r_qp_EA(eV)>
0.195872

> <i_qp_#metab>
5

> <r_qp_QPlogKhsa>
-0.701499

> <i_qp_HumanOralAbsorption>
3

> <r_qp_PercentHumanOralAbsorption>
83.6229

> <r_qp_SAfluorine>
0

> <r_qp_SAamideO>
64.4155

> <r_qp_PSA>
57.5297

> <i_qp_#NandO>
4

> <i_qp_RuleOfFive>
0

> <i_qp_RuleOfThree>
0

> <i_qp_#ringatoms>
20

> <i_qp_#in34>
0

> <i_qp_#in56>
20

> <i_qp_#noncon>
11

> <i_qp_#nonHatm>
23

> <r_qp_Jm>
37.7972

> <stars>
0

> <logP>
1.40083

> <Caco>
510.969

> <MDCK>
857.785

> <HumanOralAbsorption>
3

> <PercentHumanOralAbsorption>
83.6229

> <RuleOfFive>
0

> <base>
fda.sdf

$$$$
Molecule_80
                    3D
 Schrodinger Suite 2022-3.
 55 57  0  0  1  0            999 V2000
   -8.0024   -3.9836   38.8457 C   0  0  0  0  0  0
   -8.3720   -6.6916   38.3499 C   0  0  0  0  0  0
   -7.4475   -4.9469   39.7060 C   0  0  0  0  0  0
   -7.6272   -6.3191   39.4661 C   0  0  0  0  0  0
   -8.7421   -4.3841   37.7374 C   0  0  0  0  0  0
   -8.9270   -5.7396   37.4897 C   0  0  0  0  0  0
   -6.6977   -4.6136   40.8305 C   0  0  0  0  0  0
   -6.3944   -6.7981   41.3388 C   0  0  0  0  0  0
   -4.6220  -10.6946   38.4431 C   0  0  0  0  0  0
   -4.0062  -10.2153   35.3708 C   0  0  0  0  0  0
   -4.9606   -9.4967   36.2943 C   0  0  0  0  0  0
   -4.6661  -11.5673   35.2256 C   0  0  0  0  0  0
   -5.4665  -10.6092   37.1896 C   0  0  1  0  0  0
   -5.0711   -7.3917   43.3529 C   0  0  0  0  0  0
   -8.4716   -3.0144   35.8121 C   0  0  0  0  0  0
   -9.7900   -7.5618   36.2283 C   0  0  0  0  0  0
   -4.7589   -9.9465   41.6862 C   0  0  0  0  0  0
   -3.9610   -9.4410   40.4861 C   0  0  0  0  0  0
   -6.0624   -9.1872   41.9239 C   0  0  0  0  0  0
   -7.1008   -7.2489   40.2822 N   0  0  0  0  0  0
   -6.1569   -5.5183   41.6681 N   0  0  0  0  0  0
   -6.4739   -3.2484   41.1371 N   0  0  0  0  0  0
   -4.6829   -9.5690   39.2498 N   0  0  0  0  0  0
   -5.8455   -7.7803   42.1920 N   0  0  0  0  0  0
   -3.9661  -11.7064   38.6619 O   0  0  0  0  0  0
   -5.3013  -11.8431   36.4810 O   0  0  0  0  0  0
   -9.2763   -3.4455   36.9086 O   0  0  0  0  0  0
   -9.6478   -6.1546   36.4103 O   0  0  0  0  0  0
   -7.8681   -2.9192   39.0241 H   0  0  0  0  0  0
   -8.5278   -7.7486   38.1390 H   0  0  0  0  0  0
   -3.8553   -9.7077   34.4146 H   0  0  0  0  0  0
   -3.0305  -10.3255   35.8586 H   0  0  0  0  0  0
   -4.4900   -8.6688   36.8334 H   0  0  0  0  0  0
   -5.7925   -9.0881   35.7078 H   0  0  0  0  0  0
   -5.4419  -11.5494   34.4525 H   0  0  0  0  0  0
   -3.9538  -12.3624   34.9889 H   0  0  0  0  0  0
   -6.5052  -10.4695   37.4823 H   0  0  0  0  0  0
   -4.7293   -8.2798   43.8908 H   0  0  0  0  0  0
   -5.6803   -6.7843   44.0276 H   0  0  0  0  0  0
   -4.1986   -6.8080   43.0471 H   0  0  0  0  0  0
   -9.0164   -2.2656   35.2318 H   0  0  0  0  0  0
   -8.2250   -3.8716   35.1808 H   0  0  0  0  0  0
   -7.5505   -2.5726   36.1993 H   0  0  0  0  0  0
  -10.3855   -7.7560   35.3330 H   0  0  0  0  0  0
  -10.2778   -7.9961   37.1047 H   0  0  0  0  0  0
   -8.7992   -8.0065   36.1076 H   0  0  0  0  0  0
   -4.1286   -9.8735   42.5809 H   0  0  0  0  0  0
   -4.9940  -11.0084   41.5436 H   0  0  0  0  0  0
   -3.6829   -8.3892   40.6037 H   0  0  0  0  0  0
   -3.0408  -10.0240   40.3782 H   0  0  0  0  0  0
   -6.5805   -9.6002   42.7952 H   0  0  0  0  0  0
   -6.7341   -9.2641   41.0633 H   0  0  0  0  0  0
   -6.8193   -2.5521   40.5131 H   0  0  0  0  0  0
   -5.8969   -3.0188   41.9167 H   0  0  0  0  0  0
   -5.2703   -8.7916   38.9508 H   0  0  0  0  0  0
  1  3  2  0  0  0
  1  5  1  0  0  0
  1 29  1  0  0  0
  2  4  2  0  0  0
  2  6  1  0  0  0
  2 30  1  0  0  0
  3  4  1  0  0  0
  3  7  1  0  0  0
  4 20  1  0  0  0
  5  6  2  0  0  0
  5 27  1  0  0  0
  6 28  1  0  0  0
  7 21  2  0  0  0
  7 22  1  0  0  0
  8 20  2  0  0  0
  8 21  1  0  0  0
  8 24  1  0  0  0
  9 13  1  0  0  0
  9 23  1  0  0  0
  9 25  2  0  0  0
 10 11  1  0  0  0
 10 12  1  0  0  0
 10 31  1  0  0  0
 10 32  1  0  0  0
 11 13  1  0  0  0
 11 33  1  0  0  0
 11 34  1  0  0  0
 12 26  1  0  0  0
 12 35  1  0  0  0
 12 36  1  0  0  0
 13 26  1  0  0  0
 13 37  1  0  0  0
 14 24  1  0  0  0
 14 38  1  0  0  0
 14 39  1  0  0  0
 14 40  1  0  0  0
 15 27  1  0  0  0
 15 41  1  0  0  0
 15 42  1  0  0  0
 15 43  1  0  0  0
 16 28  1  0  0  0
 16 44  1  0  0  0
 16 45  1  0  0  0
 16 46  1  0  0  0
 17 18  1  0  0  0
 17 19  1  0  0  0
 17 47  1  0  0  0
 17 48  1  0  0  0
 18 23  1  0  0  0
 18 49  1  0  0  0
 18 50  1  0  0  0
 19 24  1  0  0  0
 19 51  1  0  0  0
 19 52  1  0  0  0
 22 53  1  0  0  0
 22 54  1  0  0  0
 23 55  1  0  0  0
M  END
> <EON_Query>
60c

> <EON_ET_pb>
0.179

> <EON_ET_coul>
0.144

> <EON_ET_combo>
0.781

> <EON_ShapeTanimoto>
0.602

> <ROCS_ShapeQuery>
60c

> <ROCS_TanimotoCombo>
0.906

> <ROCS_ShapeTanimoto>
0.644

> <ROCS_ColorTanimoto>
0.262

> <ROCS_RefTversky>
0.77

> <ROCS_RefColorTversky>
0.453

> <ROCS_RefTverskyCombo>
1.224

> <ROCS_FitTversky>
0.797

> <ROCS_FitColorTversky>
0.384

> <ROCS_FitTverskyCombo>
1.181

> <ROCS_ColorScore>
-4.579

> <ROCS_Overlap>
1009.88

> <ROCS_Rank>
87

> <EON_Rank>
44

> <i_qp_#stars>
0

> <i_qp_#amine>
0

> <i_qp_#amidine>
0

> <i_qp_#acid>
0

> <i_qp_#amide>
1

> <i_qp_#rotor>
9

> <i_qp_#rtvFG>
0

> <i_qp_CNS>
-1

> <r_qp_mol_MW>
389.453

> <r_qp_dipole>
8.37186

> <r_qp_SASA>
648.916

> <r_qp_FOSA>
489.749

> <r_qp_FISA>
94.7101

> <r_qp_PISA>
64.4574

> <r_qp_WPSA>
0

> <r_qp_volume>
1200.52

> <r_qp_donorHB>
3

> <r_qp_accptHB>
8.7

> <r_qp_dip^2/V>
0.0583815

> <r_qp_ACxDN^.5/SA>
0.0232216

> <r_qp_glob>
0.841827

> <r_qp_QPpolrz>
36.7275

> <r_qp_QPlogPC16>
11.1751

> <r_qp_QPlogPoct>
21.3478

> <r_qp_QPlogPw>
15.361

> <r_qp_QPlogPo/w>
1.81519

> <r_qp_QPlogS>
-2.70678

> <r_qp_CIQPlogS>
-3.63863

> <r_qp_QPlogHERG>
-3.0244

> <r_qp_QPPCaco>
759.495

> <r_qp_QPlogBB>
-0.869883

> <r_qp_QPPMDCK>
630.989

> <r_qp_QPlogKp>
-2.17385

> <r_qp_IP(eV)>
8.27957

> <r_qp_EA(eV)>
0.907273

> <i_qp_#metab>
4

> <r_qp_QPlogKhsa>
-0.475096

> <i_qp_HumanOralAbsorption>
3

> <r_qp_PercentHumanOralAbsorption>
89.1299

> <r_qp_SAfluorine>
0

> <r_qp_SAamideO>
27.2914

> <r_qp_PSA>
103.345

> <i_qp_#NandO>
9

> <i_qp_RuleOfFive>
0

> <i_qp_RuleOfThree>
0

> <i_qp_#ringatoms>
15

> <i_qp_#in34>
0

> <i_qp_#in56>
15

> <i_qp_#noncon>
4

> <i_qp_#nonHatm>
28

> <r_qp_Jm>
5.12656

> <stars>
0

> <logP>
1.81519

> <Caco>
759.495

> <MDCK>
630.989

> <HumanOralAbsorption>
3

> <PercentHumanOralAbsorption>
89.1299

> <RuleOfFive>
0

> <base>
fda.sdf

$$$$
BindingDB_50017701_mol_1_4
                    3D
 Schrodinger Suite 2022-3.
 51 53  0  0  1  0            999 V2000
   -7.2957   -4.2318   39.5702 C   0  0  0  0  0  0
   -8.8306   -5.5662   37.6725 C   0  0  0  0  0  0
   -7.3772   -5.6336   39.6067 C   0  0  0  0  0  0
   -8.1337   -6.3185   38.6311 C   0  0  0  0  0  0
   -7.9766   -3.5056   38.5970 C   0  0  0  0  0  0
   -8.7466   -4.1726   37.6514 C   0  0  0  0  0  0
   -7.1679   -8.7027   36.6070 C   0  0  0  0  0  0
   -6.5913   -6.3665   40.6690 C   0  0  0  0  0  0
   -8.4551   -8.5985   37.3906 C   0  0  0  0  0  0
   -6.9269   -7.8469   40.8058 C   0  0  0  0  0  0
   -5.7909   -8.5381   38.6586 C   0  0  0  0  0  0
   -8.2553   -7.8308   38.7030 C   0  0  1  0  0  0
   -5.9998   -9.3149   37.3636 C   0  0  2  0  0  0
   -3.5327  -10.1648   34.4399 C   0  0  0  0  0  0
   -5.1814  -11.6185   35.6365 C   0  0  0  0  0  0
   -7.0728   -1.5435   39.5914 C   0  0  0  0  0  0
   -8.7488   -3.2125   35.4757 C   0  0  0  0  0  0
   -4.7239   -9.3179   36.5285 C   0  0  0  0  0  0
   -4.8245  -10.1789   35.2585 C   0  0  0  0  0  0
   -7.0874   -8.4834   39.4481 N   0  3  2  0  0  0
   -7.1103   -8.3778   35.4231 O   0  0  0  0  0  0
   -7.8841   -2.1471   38.5853 O   0  0  0  0  0  0
   -9.4304   -3.4764   36.7002 O   0  0  0  0  0  0
   -6.6957   -3.7053   40.3096 H   0  0  0  0  0  0
   -9.4592   -6.0528   36.9323 H   0  0  0  0  0  0
   -5.5244   -6.2558   40.4380 H   0  0  0  0  0  0
   -6.7569   -5.8860   41.6412 H   0  0  0  0  0  0
   -9.2318   -8.1616   36.7574 H   0  0  0  0  0  0
   -8.7777   -9.6254   37.6046 H   0  0  0  0  0  0
   -6.1485   -8.3948   41.3473 H   0  0  0  0  0  0
   -7.8772   -7.9922   41.3329 H   0  0  0  0  0  0
   -5.0501   -9.0325   39.2962 H   0  0  0  0  0  0
   -5.4693   -7.5110   38.4583 H   0  0  0  0  0  0
   -9.1360   -8.0339   39.3283 H   0  0  0  0  0  0
   -6.2701  -10.3538   37.5879 H   0  0  0  0  0  0
   -2.6889  -10.5486   35.0230 H   0  0  0  0  0  0
   -3.2844   -9.1531   34.1051 H   0  0  0  0  0  0
   -3.6344  -10.7865   33.5438 H   0  0  0  0  0  0
   -4.4073  -12.0673   36.2683 H   0  0  0  0  0  0
   -5.2915  -12.2403   34.7416 H   0  0  0  0  0  0
   -6.1290  -11.6538   36.1843 H   0  0  0  0  0  0
   -7.0857   -0.4577   39.4680 H   0  0  0  0  0  0
   -6.0494   -1.9180   39.5088 H   0  0  0  0  0  0
   -7.4747   -1.8010   40.5741 H   0  0  0  0  0  0
   -9.4054   -2.6514   34.8060 H   0  0  0  0  0  0
   -8.4562   -4.1567   35.0097 H   0  0  0  0  0  0
   -7.8553   -2.6202   35.6867 H   0  0  0  0  0  0
   -4.4678   -8.2849   36.2667 H   0  0  0  0  0  0
   -3.9093   -9.6968   37.1569 H   0  0  0  0  0  0
   -5.6334   -9.7864   34.6293 H   0  0  0  0  0  0
   -7.3569   -9.4325   39.6111 H   0  0  0  0  0  0
  1  3  2  0  0  0
  1  5  1  0  0  0
  1 24  1  0  0  0
  2  4  2  0  0  0
  2  6  1  0  0  0
  2 25  1  0  0  0
  3  4  1  0  0  0
  3  8  1  0  0  0
  4 12  1  0  0  0
  5  6  2  0  0  0
  5 22  1  0  0  0
  6 23  1  0  0  0
  7  9  1  0  0  0
  7 13  1  0  0  0
  7 21  2  0  0  0
  8 10  1  0  0  0
  8 26  1  0  0  0
  8 27  1  0  0  0
  9 12  1  0  0  0
  9 28  1  0  0  0
  9 29  1  0  0  0
 10 20  1  0  0  0
 10 30  1  0  0  0
 10 31  1  0  0  0
 11 13  1  0  0  0
 11 20  1  0  0  0
 11 32  1  0  0  0
 11 33  1  0  0  0
 12 20  1  0  0  0
 12 34  1  0  0  0
 13 18  1  0  0  0
 13 35  1  0  0  0
 14 19  1  0  0  0
 14 36  1  0  0  0
 14 37  1  0  0  0
 14 38  1  0  0  0
 15 19  1  0  0  0
 15 39  1  0  0  0
 15 40  1  0  0  0
 15 41  1  0  0  0
 16 22  1  0  0  0
 16 42  1  0  0  0
 16 43  1  0  0  0
 16 44  1  0  0  0
 17 23  1  0  0  0
 17 45  1  0  0  0
 17 46  1  0  0  0
 17 47  1  0  0  0
 18 19  1  0  0  0
 18 48  1  0  0  0
 18 49  1  0  0  0
 19 50  1  0  0  0
 20 51  1  0  0  0
M  CHG  1  20   1
M  END
> <EON_Query>
60c

> <EON_ET_pb>
0.082

> <EON_ET_coul>
0.022

> <EON_ET_combo>
0.77

> <EON_ShapeTanimoto>
0.689

> <ROCS_ShapeQuery>
60c

> <ROCS_TanimotoCombo>
0.801

> <ROCS_ShapeTanimoto>
0.615

> <ROCS_ColorTanimoto>
0.186

> <ROCS_RefTversky>
0.682

> <ROCS_RefColorTversky>
0.299

> <ROCS_RefTverskyCombo>
0.981

> <ROCS_FitTversky>
0.862

> <ROCS_FitColorTversky>
0.329

> <ROCS_FitTverskyCombo>
1.191

> <ROCS_ColorScore>
-2.979

> <ROCS_Overlap>
885.197

> <ROCS_Rank>
626

> <EON_Rank>
49

> <i_qp_#stars>
0

> <i_qp_#amine>
1

> <i_qp_#amidine>
0

> <i_qp_#acid>
0

> <i_qp_#amide>
0

> <i_qp_#rotor>
4

> <i_qp_#rtvFG>
1

> <i_qp_CNS>
2

> <r_qp_mol_MW>
317.427

> <r_qp_dipole>
4.64099

> <r_qp_SASA>
590.924

> <r_qp_FOSA>
518.472

> <r_qp_FISA>
28.5004

> <r_qp_PISA>
43.9508

> <r_qp_WPSA>
0

> <r_qp_volume>
1068.87

> <r_qp_donorHB>
0

> <r_qp_accptHB>
5.5

> <r_qp_dip^2/V>
0.020151

> <r_qp_ACxDN^.5/SA>
0

> <r_qp_glob>
0.855559

> <r_qp_QPpolrz>
34.4735

> <r_qp_QPlogPC16>
8.68479

> <r_qp_QPlogPoct>
13.7544

> <r_qp_QPlogPw>
6.16914

> <r_qp_QPlogPo/w>
2.91712

> <r_qp_QPlogS>
-2.6647

> <r_qp_CIQPlogS>
-2.66522

> <r_qp_QPlogHERG>
-4.80496

> <r_qp_QPPCaco>
1325.96

> <r_qp_QPlogBB>
0.461358

> <r_qp_QPPMDCK>
742.456

> <r_qp_QPlogKp>
-3.5685

> <r_qp_IP(eV)>
9.02575

> <r_qp_EA(eV)>
0.0118581

> <i_qp_#metab>
6

> <r_qp_QPlogKhsa>
0.0798362

> <i_qp_HumanOralAbsorption>
3

> <r_qp_PercentHumanOralAbsorption>
100

> <r_qp_SAfluorine>
0

> <r_qp_SAamideO>
0

> <r_qp_PSA>
44.5546

> <i_qp_#NandO>
4

> <i_qp_RuleOfFive>
0

> <i_qp_RuleOfThree>
0

> <i_qp_#ringatoms>
14

> <i_qp_#in34>
0

> <i_qp_#in56>
14

> <i_qp_#noncon>
6

> <i_qp_#nonHatm>
23

> <r_qp_Jm>
0.185543

> <stars>
0

> <logP>
2.91712

> <Caco>
1325.96

> <MDCK>
742.456

> <HumanOralAbsorption>
3

> <PercentHumanOralAbsorption>
100.0

> <RuleOfFive>
0

> <base>
fda.sdf

$$$$
Z138288808_10
                    3D
 Schrodinger Suite 2022-3.
 42 43  0  0  1  0            999 V2000
   -8.4681   -6.1852   38.7980 C   0  0  0  0  0  0
   -7.0560   -4.2991   39.3326 C   0  0  0  0  0  0
   -9.1480   -5.4101   37.8586 C   0  0  0  0  0  0
   -7.7359   -3.5239   38.3932 C   0  0  0  0  0  0
   -7.4221   -5.6298   39.5350 C   0  0  0  0  0  0
   -8.7819   -4.0794   37.6561 C   0  0  0  0  0  0
   -6.6947   -6.4595   40.5401 C   0  0  0  0  0  0
   -5.3069  -10.1488   35.0220 C   0  0  0  0  0  0
   -3.5567  -11.5345   36.1890 C   0  0  0  0  0  0
   -6.0507   -9.9892   36.3410 C   0  0  0  0  0  0
   -4.3096  -11.3681   37.5018 C   0  0  0  0  0  0
   -4.4962  -11.4494   34.9805 C   0  0  2  0  0  0
   -3.7114  -11.5572   33.6749 C   0  0  0  0  0  0
   -6.5812   -7.9584   40.3057 C   0  0  0  0  0  0
   -5.8669   -8.2859   38.9934 C   0  0  0  0  0  0
   -5.7321   -9.7894   38.8054 C   0  0  0  0  0  0
   -5.0677  -10.0630   37.4841 N   0  3  2  0  0  0
   -6.2060   -5.9147   41.5272 O   0  0  0  0  0  0
   -9.4347   -3.3351   36.7540 F   0  0  0  0  0  0
   -8.7615   -7.2209   38.9476 H   0  0  0  0  0  0
   -6.2420   -3.8562   39.9009 H   0  0  0  0  0  0
   -9.9621   -5.8424   37.2845 H   0  0  0  0  0  0
   -7.4513   -2.4876   38.2356 H   0  0  0  0  0  0
   -6.0297  -10.1333   34.1977 H   0  0  0  0  0  0
   -4.6405   -9.2887   34.8745 H   0  0  0  0  0  0
   -2.7815  -10.7608   36.1144 H   0  0  0  0  0  0
   -3.0387  -12.5011   36.1915 H   0  0  0  0  0  0
   -6.5407   -9.0114   36.3905 H   0  0  0  0  0  0
   -6.7943  -10.7804   36.4884 H   0  0  0  0  0  0
   -5.0352  -12.1737   37.6611 H   0  0  0  0  0  0
   -3.6111  -11.3321   38.3443 H   0  0  0  0  0  0
   -5.1955  -12.2951   35.0248 H   0  0  0  0  0  0
   -3.1421  -12.4853   33.6620 H   0  0  0  0  0  0
   -3.0251  -10.7167   33.5862 H   0  0  0  0  0  0
   -4.3979  -11.5481   32.8298 H   0  0  0  0  0  0
   -6.0204   -8.4000   41.1371 H   0  0  0  0  0  0
   -7.5908   -8.3839   40.2802 H   0  0  0  0  0  0
   -6.4226   -7.8527   38.1519 H   0  0  0  0  0  0
   -4.8743   -7.8181   38.9876 H   0  0  0  0  0  0
   -6.7055  -10.2881   38.7803 H   0  0  0  0  0  0
   -5.1040  -10.2446   39.5768 H   0  0  0  0  0  0
   -4.3956   -9.3370   37.3384 H   0  0  0  0  0  0
  1  3  2  0  0  0
  1  5  1  0  0  0
  1 20  1  0  0  0
  2  4  1  0  0  0
  2  5  2  0  0  0
  2 21  1  0  0  0
  3  6  1  0  0  0
  3 22  1  0  0  0
  4  6  2  0  0  0
  4 23  1  0  0  0
  5  7  1  0  0  0
  6 19  1  0  0  0
  7 14  1  0  0  0
  7 18  2  0  0  0
  8 10  1  0  0  0
  8 12  1  0  0  0
  8 24  1  0  0  0
  8 25  1  0  0  0
  9 11  1  0  0  0
  9 12  1  0  0  0
  9 26  1  0  0  0
  9 27  1  0  0  0
 10 17  1  0  0  0
 10 28  1  0  0  0
 10 29  1  0  0  0
 11 17  1  0  0  0
 11 30  1  0  0  0
 11 31  1  0  0  0
 12 13  1  0  0  0
 12 32  1  0  0  0
 13 33  1  0  0  0
 13 34  1  0  0  0
 13 35  1  0  0  0
 14 15  1  0  0  0
 14 36  1  0  0  0
 14 37  1  0  0  0
 15 16  1  0  0  0
 15 38  1  0  0  0
 15 39  1  0  0  0
 16 17  1  0  0  0
 16 40  1  0  0  0
 16 41  1  0  0  0
 17 42  1  0  0  0
M  CHG  1  17   1
M  END
> <EON_Query>
60c

> <EON_ET_pb>
0.169

> <EON_ET_coul>
0.104

> <EON_ET_combo>
0.75

> <EON_ShapeTanimoto>
0.581

> <ROCS_ShapeQuery>
60c

> <ROCS_TanimotoCombo>
0.919

> <ROCS_ShapeTanimoto>
0.673

> <ROCS_ColorTanimoto>
0.246

> <ROCS_RefTversky>
0.662

> <ROCS_RefColorTversky>
0.304

> <ROCS_RefTverskyCombo>
0.966

> <ROCS_FitTversky>
1.023

> <ROCS_FitColorTversky>
0.565

> <ROCS_FitTverskyCombo>
1.588

> <ROCS_ColorScore>
-2.965

> <ROCS_Overlap>
853.17

> <ROCS_Rank>
67

> <EON_Rank>
59

> <i_qp_#stars>
0

> <i_qp_#amine>
1

> <i_qp_#amidine>
0

> <i_qp_#acid>
0

> <i_qp_#amide>
0

> <i_qp_#rotor>
5

> <i_qp_#rtvFG>
0

> <i_qp_CNS>
1

> <r_qp_mol_MW>
263.354

> <r_qp_dipole>
3.83536

> <r_qp_SASA>
556.469

> <r_qp_FOSA>
321.188

> <r_qp_FISA>
47.2092

> <r_qp_PISA>
141.461

> <r_qp_WPSA>
46.6115

> <r_qp_volume>
957.509

> <r_qp_donorHB>
0

> <r_qp_accptHB>
4

> <r_qp_dip^2/V>
0.0153628

> <r_qp_ACxDN^.5/SA>
0

> <r_qp_glob>
0.844279

> <r_qp_QPpolrz>
30.306

> <r_qp_QPlogPC16>
8.1002

> <r_qp_QPlogPoct>
11.7996

> <r_qp_QPlogPw>
5.19496

> <r_qp_QPlogPo/w>
3.03657

> <r_qp_QPlogS>
-2.70726

> <r_qp_CIQPlogS>
-2.15754

> <r_qp_QPlogHERG>
-5.45251

> <r_qp_QPPCaco>
881.283

> <r_qp_QPlogBB>
0.33351

> <r_qp_QPPMDCK>
859.496

> <r_qp_QPlogKp>
-3.47379

> <r_qp_IP(eV)>
9.25217

> <r_qp_EA(eV)>
0.616852

> <i_qp_#metab>
2

> <r_qp_QPlogKhsa>
0.11535

> <i_qp_HumanOralAbsorption>
3

> <r_qp_PercentHumanOralAbsorption>
100

> <r_qp_SAfluorine>
46.6115

> <r_qp_SAamideO>
0

> <r_qp_PSA>
32.1041

> <i_qp_#NandO>
2

> <i_qp_RuleOfFive>
0

> <i_qp_RuleOfThree>
0

> <i_qp_#ringatoms>
12

> <i_qp_#in34>
0

> <i_qp_#in56>
12

> <i_qp_#noncon>
5

> <i_qp_#nonHatm>
19

> <r_qp_Jm>
0.128582

> <stars>
0

> <logP>
3.03657

> <Caco>
881.283

> <MDCK>
859.496

> <HumanOralAbsorption>
3

> <PercentHumanOralAbsorption>
100.0

> <RuleOfFive>
0

> <base>
fda.sdf

$$$$
s1023.cdx_162
                    3D
 Schrodinger Suite 2022-3.
 52 54  0  0  1  0            999 V2000
   -3.6668   -9.9342   32.5813 C   0  0  0  0  0  0
   -4.1271  -10.0673   33.6823 C   0  0  0  0  0  0
   -4.9687  -11.5511   36.9908 C   0  0  0  0  0  0
   -4.4347  -11.3962   35.7117 C   0  0  0  0  0  0
   -5.7430  -10.5348   37.5510 C   0  0  0  0  0  0
   -5.4487   -9.2090   35.5529 C   0  0  0  0  0  0
   -7.7826   -5.6818   37.5044 C   0  0  0  0  0  0
   -7.4244   -4.2516   39.8587 C   0  0  0  0  0  0
   -5.8513   -7.3639   40.6924 C   0  0  0  0  0  0
   -4.6746  -10.2253   34.9927 C   0  0  0  0  0  0
   -7.1179   -6.2649   38.5973 C   0  0  0  0  0  0
   -6.9305   -5.5523   39.7929 C   0  0  0  0  0  0
   -5.9829   -9.3639   36.8321 C   0  0  0  0  0  0
   -8.2660   -4.3805   37.5977 C   0  0  0  0  0  0
   -8.0865   -3.6649   38.7762 C   0  0  0  0  0  0
   -6.6109   -7.5609   38.5695 C   0  0  0  0  0  0
   -9.0008   -0.1862   34.6479 C   0  0  0  0  0  0
   -5.0696   -0.7950   37.4322 C   0  0  0  0  0  0
   -8.1730   -3.7076   35.3186 C   0  0  0  0  0  0
   -7.8322   -1.5120   39.7539 C   0  0  0  0  0  0
   -8.6880   -2.5128   34.5395 C   0  0  0  0  0  0
   -6.3982   -1.4079   39.2712 C   0  0  0  0  0  0
   -6.2965   -6.1001   40.8444 N   0  0  0  0  0  0
   -5.9712   -8.1398   39.6031 N   0  0  0  0  0  0
   -6.7621   -8.3415   37.3964 N   0  0  0  0  0  0
   -8.9088   -3.8221   36.5355 O   0  0  0  0  0  0
   -8.5515   -2.3892   38.8897 O   0  0  0  0  0  0
   -8.5329   -1.3409   35.3307 O   0  0  0  0  0  0
   -6.3922   -0.9133   37.9375 O   0  0  0  0  0  0
   -3.2585   -9.8158   31.6049 H   0  0  0  0  0  0
   -4.7820  -12.4627   37.5507 H   0  0  0  0  0  0
   -3.8333  -12.1973   35.2886 H   0  0  0  0  0  0
   -6.1543  -10.6660   38.5487 H   0  0  0  0  0  0
   -5.6385   -8.2937   34.9954 H   0  0  0  0  0  0
   -7.9318   -6.2266   36.5751 H   0  0  0  0  0  0
   -7.2935   -3.6754   40.7734 H   0  0  0  0  0  0
   -5.3414   -7.7995   41.5431 H   0  0  0  0  0  0
   -8.8668    0.6929   35.2830 H   0  0  0  0  0  0
  -10.0577   -0.3118   34.3996 H   0  0  0  0  0  0
   -8.4251   -0.0594   33.7280 H   0  0  0  0  0  0
   -5.1026   -0.4135   36.4088 H   0  0  0  0  0  0
   -4.5821   -1.7730   37.4523 H   0  0  0  0  0  0
   -4.5100   -0.0982   38.0606 H   0  0  0  0  0  0
   -7.1147   -3.5881   35.5702 H   0  0  0  0  0  0
   -8.3141   -4.6283   34.7450 H   0  0  0  0  0  0
   -8.3262   -0.5357   39.7363 H   0  0  0  0  0  0
   -7.8663   -1.9244   40.7665 H   0  0  0  0  0  0
   -9.7504   -2.6251   34.3013 H   0  0  0  0  0  0
   -8.1153   -2.3816   33.6168 H   0  0  0  0  0  0
   -5.9088   -2.3869   39.2739 H   0  0  0  0  0  0
   -5.8330   -0.7115   39.8975 H   0  0  0  0  0  0
   -7.5958   -8.1128   36.8682 H   0  0  0  0  0  0
  1  2  3  0  0  0
  1 30  1  0  0  0
  2 10  1  0  0  0
  3  4  2  0  0  0
  3  5  1  0  0  0
  3 31  1  0  0  0
  4 10  1  0  0  0
  4 32  1  0  0  0
  5 13  2  0  0  0
  5 33  1  0  0  0
  6 10  2  0  0  0
  6 13  1  0  0  0
  6 34  1  0  0  0
  7 11  2  0  0  0
  7 14  1  0  0  0
  7 35  1  0  0  0
  8 12  2  0  0  0
  8 15  1  0  0  0
  8 36  1  0  0  0
  9 23  2  0  0  0
  9 24  1  0  0  0
  9 37  1  0  0  0
 11 12  1  0  0  0
 11 16  1  0  0  0
 12 23  1  0  0  0
 13 25  1  0  0  0
 14 15  2  0  0  0
 14 26  1  0  0  0
 15 27  1  0  0  0
 16 24  2  0  0  0
 16 25  1  0  0  0
 17 28  1  0  0  0
 17 38  1  0  0  0
 17 39  1  0  0  0
 17 40  1  0  0  0
 18 29  1  0  0  0
 18 41  1  0  0  0
 18 42  1  0  0  0
 18 43  1  0  0  0
 19 21  1  0  0  0
 19 26  1  0  0  0
 19 44  1  0  0  0
 19 45  1  0  0  0
 20 22  1  0  0  0
 20 27  1  0  0  0
 20 46  1  0  0  0
 20 47  1  0  0  0
 21 28  1  0  0  0
 21 48  1  0  0  0
 21 49  1  0  0  0
 22 29  1  0  0  0
 22 50  1  0  0  0
 22 51  1  0  0  0
 25 52  1  0  0  0
M  END
> <EON_Query>
60c

> <EON_ET_pb>
0.242

> <EON_ET_coul>
0.258

> <EON_ET_combo>
0.749

> <EON_ShapeTanimoto>
0.507

> <ROCS_ShapeQuery>
60c

> <ROCS_TanimotoCombo>
0.755

> <ROCS_ShapeTanimoto>
0.506

> <ROCS_ColorTanimoto>
0.249

> <ROCS_RefTversky>
0.67

> <ROCS_RefColorTversky>
0.416

> <ROCS_RefTverskyCombo>
1.087

> <ROCS_FitTversky>
0.674

> <ROCS_FitColorTversky>
0.382

> <ROCS_FitTverskyCombo>
1.055

> <ROCS_ColorScore>
-4.187

> <ROCS_Overlap>
880.235

> <ROCS_Rank>
1079

> <EON_Rank>
62

> <i_qp_#stars>
0

> <i_qp_#amine>
0

> <i_qp_#amidine>
0

> <i_qp_#acid>
0

> <i_qp_#amide>
0

> <i_qp_#rotor>
11

> <i_qp_#rtvFG>
0

> <i_qp_CNS>
0

> <r_qp_mol_MW>
393.441

> <r_qp_dipole>
4.2502

> <r_qp_SASA>
699.523

> <r_qp_FOSA>
345.603

> <r_qp_FISA>
39.7342

> <r_qp_PISA>
314.186

> <r_qp_WPSA>
0

> <r_qp_volume>
1264.5

> <r_qp_donorHB>
1.5

> <r_qp_accptHB>
7.4

> <r_qp_dip^2/V>
0.0142857

> <r_qp_ACxDN^.5/SA>
0.0129561

> <r_qp_glob>
0.808428

> <r_qp_QPpolrz>
40.3885

> <r_qp_QPlogPC16>
12.8226

> <r_qp_QPlogPoct>
19.0941

> <r_qp_QPlogPw>
10.8693

> <r_qp_QPlogPo/w>
4.15866

> <r_qp_QPlogS>
-4.50042

> <r_qp_CIQPlogS>
-5.21116

> <r_qp_QPlogHERG>
-6.13019

> <r_qp_QPPCaco>
4160.07

> <r_qp_QPlogBB>
-0.504738

> <r_qp_QPPMDCK>
2309.53

> <r_qp_QPlogKp>
-0.0889084

> <r_qp_IP(eV)>
8.50415

> <r_qp_EA(eV)>
1.03495

> <i_qp_#metab>
6

> <r_qp_QPlogKhsa>
0.127087

> <i_qp_HumanOralAbsorption>
3

> <r_qp_PercentHumanOralAbsorption>
100

> <r_qp_SAfluorine>
0

> <r_qp_SAamideO>
0

> <r_qp_PSA>
65.2889

> <i_qp_#NandO>
7

> <i_qp_RuleOfFive>
0

> <i_qp_RuleOfThree>
0

> <i_qp_#ringatoms>
16

> <i_qp_#in34>
0

> <i_qp_#in56>
16

> <i_qp_#noncon>
0

> <i_qp_#nonHatm>
29

> <r_qp_Jm>
10.1287

> <stars>
0

> <logP>
4.15866

> <Caco>
4160.07

> <MDCK>
2309.53

> <HumanOralAbsorption>
3

> <PercentHumanOralAbsorption>
100.0

> <RuleOfFive>
0

> <base>
fda.sdf

$$$$
Erlotinib free Base.cdx_162
                    3D
 Schrodinger Suite 2022-3.
 52 54  0  0  1  0            999 V2000
   -3.6668   -9.9342   32.5813 C   0  0  0  0  0  0
   -4.1271  -10.0673   33.6823 C   0  0  0  0  0  0
   -4.9687  -11.5511   36.9908 C   0  0  0  0  0  0
   -4.4347  -11.3962   35.7117 C   0  0  0  0  0  0
   -5.7430  -10.5348   37.5510 C   0  0  0  0  0  0
   -5.4487   -9.2090   35.5529 C   0  0  0  0  0  0
   -7.7826   -5.6818   37.5044 C   0  0  0  0  0  0
   -7.4244   -4.2516   39.8587 C   0  0  0  0  0  0
   -5.8513   -7.3639   40.6924 C   0  0  0  0  0  0
   -4.6746  -10.2253   34.9927 C   0  0  0  0  0  0
   -7.1179   -6.2649   38.5973 C   0  0  0  0  0  0
   -6.9305   -5.5523   39.7929 C   0  0  0  0  0  0
   -5.9829   -9.3639   36.8321 C   0  0  0  0  0  0
   -8.2660   -4.3805   37.5977 C   0  0  0  0  0  0
   -8.0865   -3.6649   38.7762 C   0  0  0  0  0  0
   -6.6109   -7.5609   38.5695 C   0  0  0  0  0  0
   -9.0008   -0.1862   34.6479 C   0  0  0  0  0  0
   -5.0696   -0.7950   37.4322 C   0  0  0  0  0  0
   -8.1730   -3.7076   35.3186 C   0  0  0  0  0  0
   -7.8322   -1.5120   39.7539 C   0  0  0  0  0  0
   -8.6880   -2.5128   34.5395 C   0  0  0  0  0  0
   -6.3982   -1.4079   39.2712 C   0  0  0  0  0  0
   -6.2965   -6.1001   40.8444 N   0  0  0  0  0  0
   -5.9712   -8.1398   39.6031 N   0  0  0  0  0  0
   -6.7621   -8.3415   37.3964 N   0  0  0  0  0  0
   -8.9088   -3.8221   36.5355 O   0  0  0  0  0  0
   -8.5515   -2.3892   38.8897 O   0  0  0  0  0  0
   -8.5329   -1.3409   35.3307 O   0  0  0  0  0  0
   -6.3922   -0.9133   37.9375 O   0  0  0  0  0  0
   -3.2585   -9.8158   31.6049 H   0  0  0  0  0  0
   -4.7820  -12.4627   37.5507 H   0  0  0  0  0  0
   -3.8333  -12.1973   35.2886 H   0  0  0  0  0  0
   -6.1543  -10.6660   38.5487 H   0  0  0  0  0  0
   -5.6385   -8.2937   34.9954 H   0  0  0  0  0  0
   -7.9318   -6.2266   36.5751 H   0  0  0  0  0  0
   -7.2935   -3.6754   40.7734 H   0  0  0  0  0  0
   -5.3414   -7.7995   41.5431 H   0  0  0  0  0  0
   -8.8668    0.6929   35.2830 H   0  0  0  0  0  0
  -10.0577   -0.3118   34.3996 H   0  0  0  0  0  0
   -8.4251   -0.0594   33.7280 H   0  0  0  0  0  0
   -5.1026   -0.4135   36.4088 H   0  0  0  0  0  0
   -4.5821   -1.7730   37.4523 H   0  0  0  0  0  0
   -4.5100   -0.0982   38.0606 H   0  0  0  0  0  0
   -7.1147   -3.5881   35.5702 H   0  0  0  0  0  0
   -8.3141   -4.6283   34.7450 H   0  0  0  0  0  0
   -8.3262   -0.5357   39.7363 H   0  0  0  0  0  0
   -7.8663   -1.9244   40.7665 H   0  0  0  0  0  0
   -9.7504   -2.6251   34.3013 H   0  0  0  0  0  0
   -8.1153   -2.3816   33.6168 H   0  0  0  0  0  0
   -5.9088   -2.3869   39.2739 H   0  0  0  0  0  0
   -5.8330   -0.7115   39.8975 H   0  0  0  0  0  0
   -7.5958   -8.1128   36.8682 H   0  0  0  0  0  0
  1  2  3  0  0  0
  1 30  1  0  0  0
  2 10  1  0  0  0
  3  4  2  0  0  0
  3  5  1  0  0  0
  3 31  1  0  0  0
  4 10  1  0  0  0
  4 32  1  0  0  0
  5 13  2  0  0  0
  5 33  1  0  0  0
  6 10  2  0  0  0
  6 13  1  0  0  0
  6 34  1  0  0  0
  7 11  2  0  0  0
  7 14  1  0  0  0
  7 35  1  0  0  0
  8 12  2  0  0  0
  8 15  1  0  0  0
  8 36  1  0  0  0
  9 23  2  0  0  0
  9 24  1  0  0  0
  9 37  1  0  0  0
 11 12  1  0  0  0
 11 16  1  0  0  0
 12 23  1  0  0  0
 13 25  1  0  0  0
 14 15  2  0  0  0
 14 26  1  0  0  0
 15 27  1  0  0  0
 16 24  2  0  0  0
 16 25  1  0  0  0
 17 28  1  0  0  0
 17 38  1  0  0  0
 17 39  1  0  0  0
 17 40  1  0  0  0
 18 29  1  0  0  0
 18 41  1  0  0  0
 18 42  1  0  0  0
 18 43  1  0  0  0
 19 21  1  0  0  0
 19 26  1  0  0  0
 19 44  1  0  0  0
 19 45  1  0  0  0
 20 22  1  0  0  0
 20 27  1  0  0  0
 20 46  1  0  0  0
 20 47  1  0  0  0
 21 28  1  0  0  0
 21 48  1  0  0  0
 21 49  1  0  0  0
 22 29  1  0  0  0
 22 50  1  0  0  0
 22 51  1  0  0  0
 25 52  1  0  0  0
M  END
> <EON_Query>
60c

> <EON_ET_pb>
0.242

> <EON_ET_coul>
0.258

> <EON_ET_combo>
0.749

> <EON_ShapeTanimoto>
0.507

> <ROCS_ShapeQuery>
60c

> <ROCS_TanimotoCombo>
0.755

> <ROCS_ShapeTanimoto>
0.506

> <ROCS_ColorTanimoto>
0.249

> <ROCS_RefTversky>
0.67

> <ROCS_RefColorTversky>
0.416

> <ROCS_RefTverskyCombo>
1.087

> <ROCS_FitTversky>
0.674

> <ROCS_FitColorTversky>
0.382

> <ROCS_FitTverskyCombo>
1.055

> <ROCS_ColorScore>
-4.187

> <ROCS_Overlap>
880.235

> <ROCS_Rank>
1080

> <EON_Rank>
63

> <i_qp_#stars>
0

> <i_qp_#amine>
0

> <i_qp_#amidine>
0

> <i_qp_#acid>
0

> <i_qp_#amide>
0

> <i_qp_#rotor>
11

> <i_qp_#rtvFG>
0

> <i_qp_CNS>
0

> <r_qp_mol_MW>
393.441

> <r_qp_dipole>
4.2502

> <r_qp_SASA>
699.523

> <r_qp_FOSA>
345.603

> <r_qp_FISA>
39.7342

> <r_qp_PISA>
314.186

> <r_qp_WPSA>
0

> <r_qp_volume>
1264.5

> <r_qp_donorHB>
1.5

> <r_qp_accptHB>
7.4

> <r_qp_dip^2/V>
0.0142857

> <r_qp_ACxDN^.5/SA>
0.0129561

> <r_qp_glob>
0.808428

> <r_qp_QPpolrz>
40.3885

> <r_qp_QPlogPC16>
12.8226

> <r_qp_QPlogPoct>
19.0941

> <r_qp_QPlogPw>
10.8693

> <r_qp_QPlogPo/w>
4.15866

> <r_qp_QPlogS>
-4.50042

> <r_qp_CIQPlogS>
-5.21116

> <r_qp_QPlogHERG>
-6.13019

> <r_qp_QPPCaco>
4160.07

> <r_qp_QPlogBB>
-0.504738

> <r_qp_QPPMDCK>
2309.53

> <r_qp_QPlogKp>
-0.0889084

> <r_qp_IP(eV)>
8.50415

> <r_qp_EA(eV)>
1.03495

> <i_qp_#metab>
6

> <r_qp_QPlogKhsa>
0.127087

> <i_qp_HumanOralAbsorption>
3

> <r_qp_PercentHumanOralAbsorption>
100

> <r_qp_SAfluorine>
0

> <r_qp_SAamideO>
0

> <r_qp_PSA>
65.2889

> <i_qp_#NandO>
7

> <i_qp_RuleOfFive>
0

> <i_qp_RuleOfThree>
0

> <i_qp_#ringatoms>
16

> <i_qp_#in34>
0

> <i_qp_#in56>
16

> <i_qp_#noncon>
0

> <i_qp_#nonHatm>
29

> <r_qp_Jm>
10.1287

> <stars>
0

> <logP>
4.15866

> <Caco>
4160.07

> <MDCK>
2309.53

> <HumanOralAbsorption>
3

> <PercentHumanOralAbsorption>
100.0

> <RuleOfFive>
0

> <base>
fda.sdf

$$$$
Racecadotril.cdx_115
                    3D
 Schrodinger Suite 2022-3.
 50 51  0  0  1  0            999 V2000
   -9.4667   -2.5180   35.8639 C   0  0  0  0  0  0
   -4.5304  -10.3782   35.0196 C   0  0  0  0  0  0
   -9.2303   -2.0222   37.1461 C   0  0  0  0  0  0
   -9.4007   -3.8904   35.6236 C   0  0  0  0  0  0
   -3.7368  -11.2086   35.8108 C   0  0  0  0  0  0
   -5.6499   -9.7532   35.5689 C   0  0  0  0  0  0
   -8.9276   -2.8989   38.1878 C   0  0  0  0  0  0
   -9.0979   -4.7670   36.6654 C   0  0  0  0  0  0
   -4.0628  -11.4142   37.1513 C   0  0  0  0  0  0
   -5.9760   -9.9589   36.9095 C   0  0  0  0  0  0
   -8.8614   -4.2713   37.9476 C   0  0  0  0  0  0
   -5.1824  -10.7894   37.7007 C   0  0  0  0  0  0
   -6.7741   -6.3704   40.4807 C   0  0  0  0  0  0
   -6.5702   -9.8965   40.9540 C   0  0  0  0  0  0
   -4.1072   -6.4722   36.4432 C   0  0  0  0  0  0
   -3.1635   -5.4128   35.9494 C   0  0  0  0  0  0
   -8.5335   -5.2205   39.0743 C   0  0  0  0  0  0
   -5.5338  -11.0103   39.1427 C   0  0  0  0  0  0
   -7.2520   -8.6275   41.4086 C   0  0  0  0  0  0
   -6.3356   -6.0918   37.9985 C   0  0  0  0  0  0
   -7.0231   -5.4967   39.2441 C   0  0  2  0  0  0
   -7.3471   -7.6288   40.3693 N   0  0  0  0  0  0
   -6.1364   -5.9759   41.4550 O   0  0  0  0  0  0
   -6.3955  -10.8493   41.7067 O   0  0  0  0  0  0
   -4.5338   -7.3720   35.7298 O   0  0  0  0  0  0
   -6.1894   -9.8425   39.6481 O   0  0  0  0  0  0
   -4.5303   -6.2876   38.1423 S   0  0  0  0  0  0
   -9.7039   -1.8353   35.0531 H   0  0  0  0  0  0
   -4.2756  -10.2171   33.9762 H   0  0  0  0  0  0
   -9.2828   -0.9537   37.3336 H   0  0  0  0  0  0
   -9.5858   -4.2768   34.6258 H   0  0  0  0  0  0
   -2.8643  -11.6944   35.3836 H   0  0  0  0  0  0
   -6.2674   -9.1057   34.9535 H   0  0  0  0  0  0
   -8.7446   -2.5037   39.1836 H   0  0  0  0  0  0
   -9.0484   -5.8348   36.4688 H   0  0  0  0  0  0
   -3.4388  -12.0632   37.7603 H   0  0  0  0  0  0
   -6.8502   -9.4679   37.3288 H   0  0  0  0  0  0
   -3.7232   -4.5575   35.5605 H   0  0  0  0  0  0
   -2.5081   -5.8207   35.1747 H   0  0  0  0  0  0
   -2.5409   -5.0679   36.7804 H   0  0  0  0  0  0
   -9.0907   -6.1575   38.9503 H   0  0  0  0  0  0
   -8.9296   -4.7830   40.0017 H   0  0  0  0  0  0
   -6.2010  -11.8717   39.2557 H   0  0  0  0  0  0
   -4.6334  -11.2021   39.7362 H   0  0  0  0  0  0
   -6.6796   -8.1925   42.2320 H   0  0  0  0  0  0
   -8.2694   -8.8632   41.7307 H   0  0  0  0  0  0
   -6.5197   -5.4609   37.1225 H   0  0  0  0  0  0
   -6.7585   -7.0753   37.7693 H   0  0  0  0  0  0
   -6.5304   -4.5354   39.4504 H   0  0  0  0  0  0
   -7.8554   -7.8579   39.5203 H   0  0  0  0  0  0
  1  3  2  0  0  0
  1  4  1  0  0  0
  1 28  1  0  0  0
  2  5  2  0  0  0
  2  6  1  0  0  0
  2 29  1  0  0  0
  3  7  1  0  0  0
  3 30  1  0  0  0
  4  8  2  0  0  0
  4 31  1  0  0  0
  5  9  1  0  0  0
  5 32  1  0  0  0
  6 10  2  0  0  0
  6 33  1  0  0  0
  7 11  2  0  0  0
  7 34  1  0  0  0
  8 11  1  0  0  0
  8 35  1  0  0  0
  9 12  2  0  0  0
  9 36  1  0  0  0
 10 12  1  0  0  0
 10 37  1  0  0  0
 11 17  1  0  0  0
 12 18  1  0  0  0
 13 21  1  0  0  0
 13 22  1  0  0  0
 13 23  2  0  0  0
 14 19  1  0  0  0
 14 24  2  0  0  0
 14 26  1  0  0  0
 15 16  1  0  0  0
 15 25  2  0  0  0
 15 27  1  0  0  0
 16 38  1  0  0  0
 16 39  1  0  0  0
 16 40  1  0  0  0
 17 21  1  0  0  0
 17 41  1  0  0  0
 17 42  1  0  0  0
 18 26  1  0  0  0
 18 43  1  0  0  0
 18 44  1  0  0  0
 19 22  1  0  0  0
 19 45  1  0  0  0
 19 46  1  0  0  0
 20 21  1  0  0  0
 20 27  1  0  0  0
 20 47  1  0  0  0
 20 48  1  0  0  0
 21 49  1  0  0  0
 22 50  1  0  0  0
M  END
> <EON_Query>
60c

> <EON_ET_pb>
0.24

> <EON_ET_coul>
0.168

> <EON_ET_combo>
0.737

> <EON_ShapeTanimoto>
0.497

> <ROCS_ShapeQuery>
60c

> <ROCS_TanimotoCombo>
0.737

> <ROCS_ShapeTanimoto>
0.596

> <ROCS_ColorTanimoto>
0.142

> <ROCS_RefTversky>
0.706

> <ROCS_RefColorTversky>
0.203

> <ROCS_RefTverskyCombo>
0.908

> <ROCS_FitTversky>
0.793

> <ROCS_FitColorTversky>
0.321

> <ROCS_FitTverskyCombo>
1.113

> <ROCS_ColorScore>
-1.987

> <ROCS_Overlap>
920.974

> <ROCS_Rank>
1284

> <EON_Rank>
76

> <i_qp_#stars>
0

> <i_qp_#amine>
0

> <i_qp_#amidine>
0

> <i_qp_#acid>
0

> <i_qp_#amide>
1

> <i_qp_#rotor>
10

> <i_qp_#rtvFG>
2

> <i_qp_CNS>
-1

> <r_qp_mol_MW>
385.477

> <r_qp_dipole>
7.31322

> <r_qp_SASA>
668.444

> <r_qp_FOSA>
210.685

> <r_qp_FISA>
101.501

> <r_qp_PISA>
337.329

> <r_qp_WPSA>
18.9281

> <r_qp_volume>
1219.81

> <r_qp_donorHB>
0.25

> <r_qp_accptHB>
5.75

> <r_qp_dip^2/V>
0.0438455

> <r_qp_ACxDN^.5/SA>
0.00430104

> <r_qp_glob>
0.825965

> <r_qp_QPpolrz>
39.4633

> <r_qp_QPlogPC16>
12.8332

> <r_qp_QPlogPoct>
16.9968

> <r_qp_QPlogPw>
10.6454

> <r_qp_QPlogPo/w>
3.70784

> <r_qp_QPlogS>
-3.53842

> <r_qp_CIQPlogS>
-4.80208

> <r_qp_QPlogHERG>
-4.58238

> <r_qp_QPPCaco>
581.052

> <r_qp_QPlogBB>
-0.984615

> <r_qp_QPPMDCK>
682.495

> <r_qp_QPlogKp>
-1.24176

> <r_qp_IP(eV)>
9.47409

> <r_qp_EA(eV)>
0.586588

> <i_qp_#metab>
4

> <r_qp_QPlogKhsa>
0.0150809

> <i_qp_HumanOralAbsorption>
3

> <r_qp_PercentHumanOralAbsorption>
100

> <r_qp_SAfluorine>
0

> <r_qp_SAamideO>
33.8126

> <r_qp_PSA>
91.0369

> <i_qp_#NandO>
5

> <i_qp_RuleOfFive>
0

> <i_qp_RuleOfThree>
0

> <i_qp_#ringatoms>
12

> <i_qp_#in34>
0

> <i_qp_#in56>
12

> <i_qp_#noncon>
0

> <i_qp_#nonHatm>
27

> <r_qp_Jm>
6.39468

> <stars>
0

> <logP>
3.70784

> <Caco>
581.052

> <MDCK>
682.495

> <HumanOralAbsorption>
3

> <PercentHumanOralAbsorption>
100.0

> <RuleOfFive>
0

> <base>
fda.sdf

$$$$
Molecule_109
                    3D
 Schrodinger Suite 2022-3.
 43 44  0  0  1  0            999 V2000
   -8.7972   -3.8152   37.9385 C   0  0  0  0  0  0
   -7.7653   -3.5300   38.8326 C   0  0  0  0  0  0
   -9.1662   -5.1388   37.6985 C   0  0  0  0  0  0
   -7.1023   -4.5685   39.4867 C   0  0  0  0  0  0
   -8.5033   -6.1772   38.3526 C   0  0  0  0  0  0
   -7.4713   -5.8921   39.2467 C   0  0  0  0  0  0
   -6.7656   -6.9974   39.9430 C   0  0  0  0  0  0
   -4.2198  -10.7608   34.9510 C   0  0  0  0  0  0
   -4.9868  -11.9411   35.5428 C   0  0  0  0  0  0
   -3.5765   -9.9012   36.0368 C   0  0  0  0  0  0
   -6.0135  -11.4839   36.5771 C   0  0  0  0  0  0
   -4.6013   -9.4413   37.0720 C   0  0  0  0  0  0
   -5.3566  -10.6311   37.6601 C   0  0  0  0  0  0
   -6.6026   -8.7883   42.1959 C   0  0  0  0  0  0
   -5.9099   -9.7452   39.9248 C   0  0  0  0  0  0
   -7.0340   -9.1851   40.7901 C   0  0  2  0  0  0
   -6.4104  -10.1252   38.5792 N   0  3  0  0  0  0
   -5.5966   -6.9321   40.2901 O   0  0  0  0  0  0
   -7.5987   -8.0564   40.1274 O   0  0  0  0  0  0
   -9.3133   -3.0067   37.4292 H   0  0  0  0  0  0
   -7.4780   -2.4994   39.0191 H   0  0  0  0  0  0
   -9.9699   -5.3609   37.0025 H   0  0  0  0  0  0
   -6.2997   -4.3349   40.1815 H   0  0  0  0  0  0
   -8.7993   -7.2049   38.1578 H   0  0  0  0  0  0
   -3.4412  -11.1354   34.2761 H   0  0  0  0  0  0
   -4.8973  -10.1467   34.3482 H   0  0  0  0  0  0
   -5.4849  -12.4951   34.7389 H   0  0  0  0  0  0
   -4.2818  -12.6366   36.0120 H   0  0  0  0  0  0
   -2.7857  -10.4744   36.5342 H   0  0  0  0  0  0
   -3.0912   -9.0325   35.5772 H   0  0  0  0  0  0
   -6.8127  -10.9354   36.0843 H   0  0  0  0  0  0
   -6.4541  -12.3640   37.0434 H   0  0  0  0  0  0
   -4.0780   -8.9268   37.8767 H   0  0  0  0  0  0
   -5.2899   -8.7322   36.6190 H   0  0  0  0  0  0
   -4.6929  -11.2385   38.2749 H   0  0  0  0  0  0
   -5.8141   -8.0288   42.1776 H   0  0  0  0  0  0
   -6.1792   -9.6539   42.7176 H   0  0  0  0  0  0
   -7.4478   -8.4136   42.7810 H   0  0  0  0  0  0
   -5.4672  -10.6447   40.3624 H   0  0  0  0  0  0
   -5.1316   -8.9951   39.7542 H   0  0  0  0  0  0
   -7.8213   -9.9442   40.8613 H   0  0  0  0  0  0
   -6.8311   -9.3198   38.1616 H   0  0  0  0  0  0
   -7.0996  -10.8411   38.6911 H   0  0  0  0  0  0
  1  2  2  0  0  0
  1  3  1  0  0  0
  1 20  1  0  0  0
  2  4  1  0  0  0
  2 21  1  0  0  0
  3  5  2  0  0  0
  3 22  1  0  0  0
  4  6  2  0  0  0
  4 23  1  0  0  0
  5  6  1  0  0  0
  5 24  1  0  0  0
  6  7  1  0  0  0
  7 18  2  0  0  0
  7 19  1  0  0  0
  8  9  1  0  0  0
  8 10  1  0  0  0
  8 25  1  0  0  0
  8 26  1  0  0  0
  9 11  1  0  0  0
  9 27  1  0  0  0
  9 28  1  0  0  0
 10 12  1  0  0  0
 10 29  1  0  0  0
 10 30  1  0  0  0
 11 13  1  0  0  0
 11 31  1  0  0  0
 11 32  1  0  0  0
 12 13  1  0  0  0
 12 33  1  0  0  0
 12 34  1  0  0  0
 13 17  1  0  0  0
 13 35  1  0  0  0
 14 16  1  0  0  0
 14 36  1  0  0  0
 14 37  1  0  0  0
 14 38  1  0  0  0
 15 16  1  0  0  0
 15 17  1  0  0  0
 15 39  1  0  0  0
 15 40  1  0  0  0
 16 19  1  0  0  0
 16 41  1  0  0  0
 17 42  1  0  0  0
 17 43  1  0  0  0
M  CHG  1  17   1
M  END
> <EON_Query>
60c

> <EON_ET_pb>
0.133

> <EON_ET_coul>
0.075

> <EON_ET_combo>
0.726

> <EON_ShapeTanimoto>
0.593

> <ROCS_ShapeQuery>
60c

> <ROCS_TanimotoCombo>
0.852

> <ROCS_ShapeTanimoto>
0.693

> <ROCS_ColorTanimoto>
0.159

> <ROCS_RefTversky>
0.676

> <ROCS_RefColorTversky>
0.211

> <ROCS_RefTverskyCombo>
0.887

> <ROCS_FitTversky>
1.037

> <ROCS_FitColorTversky>
0.392

> <ROCS_FitTverskyCombo>
1.429

> <ROCS_ColorScore>
-2.059

> <ROCS_Overlap>
870.918

> <ROCS_Rank>
249

> <EON_Rank>
86

> <i_qp_#stars>
0

> <i_qp_#amine>
1

> <i_qp_#amidine>
0

> <i_qp_#acid>
0

> <i_qp_#amide>
0

> <i_qp_#rotor>
5

> <i_qp_#rtvFG>
1

> <i_qp_CNS>
1

> <r_qp_mol_MW>
261.363

> <r_qp_dipole>
2.68681

> <r_qp_SASA>
555.58

> <r_qp_FOSA>
337.416

> <r_qp_FISA>
26.6208

> <r_qp_PISA>
191.543

> <r_qp_WPSA>
0

> <r_qp_volume>
959.139

> <r_qp_donorHB>
1

> <r_qp_accptHB>
3.5

> <r_qp_dip^2/V>
0.00752647

> <r_qp_ACxDN^.5/SA>
0.00629972

> <r_qp_glob>
0.846589

> <r_qp_QPpolrz>
30.8495

> <r_qp_QPlogPC16>
8.86134

> <r_qp_QPlogPoct>
12.822

> <r_qp_QPlogPw>
6.34928

> <r_qp_QPlogPo/w>
3.34063

> <r_qp_QPlogS>
-3.10747

> <r_qp_CIQPlogS>
-2.40494

> <r_qp_QPlogHERG>
-5.65398

> <r_qp_QPPCaco>
1381.51

> <r_qp_QPlogBB>
0.413048

> <r_qp_QPPMDCK>
776.133

> <r_qp_QPlogKp>
-2.91792

> <r_qp_IP(eV)>
9.23239

> <r_qp_EA(eV)>
0.214685

> <i_qp_#metab>
1

> <r_qp_QPlogKhsa>
0.342275

> <i_qp_HumanOralAbsorption>
3

> <r_qp_PercentHumanOralAbsorption>
100

> <r_qp_SAfluorine>
0

> <r_qp_SAamideO>
0

> <r_qp_PSA>
40.3041

> <i_qp_#NandO>
3

> <i_qp_RuleOfFive>
0

> <i_qp_RuleOfThree>
0

> <i_qp_#ringatoms>
12

> <i_qp_#in34>
0

> <i_qp_#in56>
12

> <i_qp_#noncon>
6

> <i_qp_#nonHatm>
19

> <r_qp_Jm>
0.246521

> <stars>
0

> <logP>
3.34063

> <Caco>
1381.51

> <MDCK>
776.133

> <HumanOralAbsorption>
3

> <PercentHumanOralAbsorption>
100.0

> <RuleOfFive>
0

> <base>
fda.sdf

$$$$
Molecule_46
                    3D
 Schrodinger Suite 2022-3.
 43 44  0  0  1  0            999 V2000
   -8.7733   -3.9945   37.6350 C   0  0  0  0  0  0
   -8.0792   -3.3848   38.6800 C   0  0  0  0  0  0
   -8.8351   -5.3858   37.5568 C   0  0  0  0  0  0
   -7.4468   -4.1665   39.6469 C   0  0  0  0  0  0
   -8.2027   -6.1674   38.5237 C   0  0  0  0  0  0
   -7.5085   -5.5578   39.5686 C   0  0  0  0  0  0
   -6.8353   -6.3898   40.5978 C   0  0  0  0  0  0
   -4.0822  -11.3423   34.9991 C   0  0  0  0  0  0
   -5.5112  -10.8093   34.9265 C   0  0  0  0  0  0
   -3.7495  -11.8845   36.3873 C   0  0  0  0  0  0
   -5.7807   -9.7702   36.0132 C   0  0  0  0  0  0
   -4.0167  -10.8470   37.4762 C   0  0  0  0  0  0
   -5.4502  -10.3270   37.3962 C   0  0  0  0  0  0
   -6.2274   -9.0093   42.2090 C   0  0  0  0  0  0
   -5.8563   -9.7408   39.7859 C   0  0  0  0  0  0
   -5.9727   -8.5811   40.7696 C   0  0  1  0  0  0
   -5.6274   -9.2479   38.4040 N   0  3  0  0  0  0
   -6.2122   -5.9193   41.5369 O   0  0  0  0  0  0
   -7.0175   -7.7123   40.3386 O   0  0  0  0  0  0
   -9.2656   -3.3859   36.8822 H   0  0  0  0  0  0
   -8.0309   -2.3015   38.7406 H   0  0  0  0  0  0
   -9.3759   -5.8605   36.7432 H   0  0  0  0  0  0
   -6.9086   -3.6810   40.4570 H   0  0  0  0  0  0
   -8.2575   -7.2508   38.4526 H   0  0  0  0  0  0
   -3.9540  -12.1398   34.2579 H   0  0  0  0  0  0
   -3.3784  -10.5454   34.7366 H   0  0  0  0  0  0
   -5.6901  -10.3727   33.9371 H   0  0  0  0  0  0
   -6.2171  -11.6405   35.0340 H   0  0  0  0  0  0
   -4.3488  -12.7814   36.5812 H   0  0  0  0  0  0
   -2.6993  -12.1977   36.4166 H   0  0  0  0  0  0
   -5.2063   -8.8694   35.8112 H   0  0  0  0  0  0
   -6.8362   -9.5033   35.9861 H   0  0  0  0  0  0
   -3.8682  -11.3151   38.4483 H   0  0  0  0  0  0
   -3.3039  -10.0305   37.3900 H   0  0  0  0  0  0
   -6.1563  -11.1098   37.6721 H   0  0  0  0  0  0
   -7.1521   -9.5884   42.3009 H   0  0  0  0  0  0
   -6.3561   -8.1273   42.8464 H   0  0  0  0  0  0
   -5.3942   -9.5994   42.6023 H   0  0  0  0  0  0
   -6.7671  -10.3460   39.7584 H   0  0  0  0  0  0
   -4.9973  -10.3756   40.0240 H   0  0  0  0  0  0
   -5.0399   -8.0070   40.7298 H   0  0  0  0  0  0
   -4.8037   -8.6809   38.4052 H   0  0  0  0  0  0
   -6.4140   -8.6924   38.1344 H   0  0  0  0  0  0
  1  2  2  0  0  0
  1  3  1  0  0  0
  1 20  1  0  0  0
  2  4  1  0  0  0
  2 21  1  0  0  0
  3  5  2  0  0  0
  3 22  1  0  0  0
  4  6  2  0  0  0
  4 23  1  0  0  0
  5  6  1  0  0  0
  5 24  1  0  0  0
  6  7  1  0  0  0
  7 18  2  0  0  0
  7 19  1  0  0  0
  8  9  1  0  0  0
  8 10  1  0  0  0
  8 25  1  0  0  0
  8 26  1  0  0  0
  9 11  1  0  0  0
  9 27  1  0  0  0
  9 28  1  0  0  0
 10 12  1  0  0  0
 10 29  1  0  0  0
 10 30  1  0  0  0
 11 13  1  0  0  0
 11 31  1  0  0  0
 11 32  1  0  0  0
 12 13  1  0  0  0
 12 33  1  0  0  0
 12 34  1  0  0  0
 13 17  1  0  0  0
 13 35  1  0  0  0
 14 16  1  0  0  0
 14 36  1  0  0  0
 14 37  1  0  0  0
 14 38  1  0  0  0
 15 16  1  0  0  0
 15 17  1  0  0  0
 15 39  1  0  0  0
 15 40  1  0  0  0
 16 19  1  0  0  0
 16 41  1  0  0  0
 17 42  1  0  0  0
 17 43  1  0  0  0
M  CHG  1  17   1
M  END
> <EON_Query>
60c

> <EON_ET_pb>
0.126

> <EON_ET_coul>
0.08

> <EON_ET_combo>
0.712

> <EON_ShapeTanimoto>
0.585

> <ROCS_ShapeQuery>
60c

> <ROCS_TanimotoCombo>
0.944

> <ROCS_ShapeTanimoto>
0.704

> <ROCS_ColorTanimoto>
0.24

> <ROCS_RefTversky>
0.682

> <ROCS_RefColorTversky>
0.298

> <ROCS_RefTverskyCombo>
0.98

> <ROCS_FitTversky>
1.047

> <ROCS_FitColorTversky>
0.553

> <ROCS_FitTverskyCombo>
1.6

> <ROCS_ColorScore>
-2.903

> <ROCS_Overlap>
879.175

> <ROCS_Rank>
35

> <EON_Rank>
107

> <i_qp_#stars>
0

> <i_qp_#amine>
1

> <i_qp_#amidine>
0

> <i_qp_#acid>
0

> <i_qp_#amide>
0

> <i_qp_#rotor>
5

> <i_qp_#rtvFG>
1

> <i_qp_CNS>
1

> <r_qp_mol_MW>
261.363

> <r_qp_dipole>
3.6029

> <r_qp_SASA>
554.644

> <r_qp_FOSA>
334.303

> <r_qp_FISA>
45.1285

> <r_qp_PISA>
175.213

> <r_qp_WPSA>
0

> <r_qp_volume>
968.635

> <r_qp_donorHB>
1

> <r_qp_accptHB>
3.5

> <r_qp_dip^2/V>
0.0134012

> <r_qp_ACxDN^.5/SA>
0.00631035

> <r_qp_glob>
0.853606

> <r_qp_QPpolrz>
31.0736

> <r_qp_QPlogPC16>
8.99376

> <r_qp_QPlogPoct>
13.0715

> <r_qp_QPlogPw>
6.36184

> <r_qp_QPlogPo/w>
3.25584

> <r_qp_QPlogS>
-3.09079

> <r_qp_CIQPlogS>
-2.40494

> <r_qp_QPlogHERG>
-5.46255

> <r_qp_QPPCaco>
922.245

> <r_qp_QPlogBB>
0.247759

> <r_qp_QPPMDCK>
501.456

> <r_qp_QPlogKp>
-3.31655

> <r_qp_IP(eV)>
9.32814

> <r_qp_EA(eV)>
0.416649

> <i_qp_#metab>
1

> <r_qp_QPlogKhsa>
0.370304

> <i_qp_HumanOralAbsorption>
3

> <r_qp_PercentHumanOralAbsorption>
100

> <r_qp_SAfluorine>
0

> <r_qp_SAamideO>
0

> <r_qp_PSA>
44.1085

> <i_qp_#NandO>
3

> <i_qp_RuleOfFive>
0

> <i_qp_RuleOfThree>
0

> <i_qp_#ringatoms>
12

> <i_qp_#in34>
0

> <i_qp_#in56>
12

> <i_qp_#noncon>
6

> <i_qp_#nonHatm>
19

> <r_qp_Jm>
0.102307

> <stars>
0

> <logP>
3.25584

> <Caco>
922.245

> <MDCK>
501.456

> <HumanOralAbsorption>
3

> <PercentHumanOralAbsorption>
100.0

> <RuleOfFive>
0

> <base>
fda.sdf

$$$$
Roflumilast.cdx_53
                    3D
 Schrodinger Suite 2022-3.
 40 42  0  0  1  0            999 V2000
   -6.3117   -8.8699   41.5243 C   0  0  0  0  0  0
   -6.0915  -10.2456   41.4585 C   0  0  0  0  0  0
   -6.0806   -8.7179   39.1242 C   0  0  0  0  0  0
   -6.7414   -2.4664   38.7969 C   0  0  0  0  0  0
   -8.9509   -3.0179   38.4934 C   0  0  0  0  0  0
   -6.3063   -8.1060   40.3572 C   0  0  0  0  0  0
   -7.3979   -4.7418   39.0155 C   0  0  0  0  0  0
   -5.8658  -10.8576   40.2255 C   0  0  0  0  0  0
   -5.8603  -10.0938   39.0584 C   0  0  0  0  0  0
   -6.3917   -3.7828   39.0503 C   0  0  0  0  0  0
   -8.7047   -4.3603   38.7324 C   0  0  0  0  0  0
   -6.5379   -6.6719   40.4258 C   0  0  0  0  0  0
   -4.8764  -11.5747   34.8536 C   0  0  0  0  0  0
   -3.9928  -10.4122   34.4964 C   0  0  0  0  0  0
   -4.2023  -10.7817   35.9388 C   0  0  0  0  0  0
   -5.0165   -9.8830   36.8449 C   0  0  0  0  0  0
   -4.4129  -12.6462   39.6364 C   0  0  0  0  0  0
   -7.9996   -2.0577   38.5183 N   0  0  0  0  0  0
   -7.0924   -6.1028   39.2688 N   0  0  0  0  0  0
   -6.2304   -6.0096   41.4266 O   0  0  0  0  0  0
   -5.6435  -10.6799   37.8479 O   0  0  0  0  0  0
   -5.6521  -12.2021   40.1744 O   0  0  0  0  0  0
   -4.5841  -12.8127   38.2994 F   0  0  0  0  0  0
   -3.4860  -11.6684   39.7875 F   0  0  0  0  0  0
   -4.7496   -4.1698   39.3946 Cl  0  0  0  0  0  0
  -10.0087   -5.4830   38.6703 Cl  0  0  0  0  0  0
   -6.4866   -8.4037   42.4905 H   0  0  0  0  0  0
   -6.0968  -10.8350   42.3712 H   0  0  0  0  0  0
   -6.0780   -8.1256   38.2120 H   0  0  0  0  0  0
   -6.0034   -1.6695   38.8088 H   0  0  0  0  0  0
   -9.9489   -2.6546   38.2668 H   0  0  0  0  0  0
   -5.9438  -11.4580   34.7124 H   0  0  0  0  0  0
   -4.5037  -12.5715   34.6526 H   0  0  0  0  0  0
   -3.0274  -10.6294   34.0560 H   0  0  0  0  0  0
   -4.4684   -9.5168   34.1156 H   0  0  0  0  0  0
   -3.3772  -11.2482   36.4633 H   0  0  0  0  0  0
   -5.7907   -9.3620   36.2737 H   0  0  0  0  0  0
   -4.3730   -9.1446   37.3325 H   0  0  0  0  0  0
   -4.0657  -13.5925   40.0647 H   0  0  0  0  0  0
   -7.3023   -6.7513   38.5139 H   0  0  0  0  0  0
  1  2  2  0  0  0
  1  6  1  0  0  0
  1 27  1  0  0  0
  2  8  1  0  0  0
  2 28  1  0  0  0
  3  6  2  0  0  0
  3  9  1  0  0  0
  3 29  1  0  0  0
  4 10  2  0  0  0
  4 18  1  0  0  0
  4 30  1  0  0  0
  5 11  1  0  0  0
  5 18  2  0  0  0
  5 31  1  0  0  0
  6 12  1  0  0  0
  7 10  1  0  0  0
  7 11  2  0  0  0
  7 19  1  0  0  0
  8  9  2  0  0  0
  8 22  1  0  0  0
  9 21  1  0  0  0
 10 25  1  0  0  0
 11 26  1  0  0  0
 12 19  1  0  0  0
 12 20  2  0  0  0
 13 14  1  0  0  0
 13 15  1  0  0  0
 13 32  1  0  0  0
 13 33  1  0  0  0
 14 15  1  0  0  0
 14 34  1  0  0  0
 14 35  1  0  0  0
 15 16  1  0  0  0
 15 36  1  0  0  0
 16 21  1  0  0  0
 16 37  1  0  0  0
 16 38  1  0  0  0
 17 22  1  0  0  0
 17 23  1  0  0  0
 17 24  1  0  0  0
 17 39  1  0  0  0
 19 40  1  0  0  0
M  END
> <EON_Query>
60c

> <EON_ET_pb>
0.143

> <EON_ET_coul>
0.193

> <EON_ET_combo>
0.706

> <EON_ShapeTanimoto>
0.563

> <ROCS_ShapeQuery>
60c

> <ROCS_TanimotoCombo>
0.845

> <ROCS_ShapeTanimoto>
0.63

> <ROCS_ColorTanimoto>
0.215

> <ROCS_RefTversky>
0.731

> <ROCS_RefColorTversky>
0.305

> <ROCS_RefTverskyCombo>
1.036

> <ROCS_FitTversky>
0.82

> <ROCS_FitColorTversky>
0.421

> <ROCS_FitTverskyCombo>
1.241

> <ROCS_ColorScore>
-3.008

> <ROCS_Overlap>
954.18

> <ROCS_Rank>
292

> <EON_Rank>
120

> <i_qp_#stars>
0

> <i_qp_#amine>
0

> <i_qp_#amidine>
0

> <i_qp_#acid>
0

> <i_qp_#amide>
0

> <i_qp_#rotor>
6

> <i_qp_#rtvFG>
0

> <i_qp_CNS>
1

> <r_qp_mol_MW>
403.212

> <r_qp_dipole>
4.41691

> <r_qp_SASA>
627.101

> <r_qp_FOSA>
207.913

> <r_qp_FISA>
60.2077

> <r_qp_PISA>
194.425

> <r_qp_WPSA>
164.556

> <r_qp_volume>
1094.99

> <r_qp_donorHB>
1

> <r_qp_accptHB>
4.75

> <r_qp_dip^2/V>
0.0178166

> <r_qp_ACxDN^.5/SA>
0.00757453

> <r_qp_glob>
0.819285

> <r_qp_QPpolrz>
35.6718

> <r_qp_QPlogPC16>
10.9028

> <r_qp_QPlogPoct>
16.2193

> <r_qp_QPlogPw>
7.83772

> <r_qp_QPlogPo/w>
4.60045

> <r_qp_QPlogS>
-5.70972

> <r_qp_CIQPlogS>
-6.0405

> <r_qp_QPlogHERG>
-5.38336

> <r_qp_QPPCaco>
2660.42

> <r_qp_QPlogBB>
0.00772041

> <r_qp_QPPMDCK>
10000

> <r_qp_QPlogKp>
-1.36817

> <r_qp_IP(eV)>
9.61129

> <r_qp_EA(eV)>
0.911858

> <i_qp_#metab>
4

> <r_qp_QPlogKhsa>
0.415142

> <i_qp_HumanOralAbsorption>
3

> <r_qp_PercentHumanOralAbsorption>
100

> <r_qp_SAfluorine>
47.6192

> <r_qp_SAamideO>
0

> <r_qp_PSA>
59.2216

> <i_qp_#NandO>
5

> <i_qp_RuleOfFive>
0

> <i_qp_RuleOfThree>
1

> <i_qp_#ringatoms>
15

> <i_qp_#in34>
3

> <i_qp_#in56>
12

> <i_qp_#noncon>
3

> <i_qp_#nonHatm>
26

> <r_qp_Jm>
0.0337012

> <stars>
0

> <logP>
4.60045

> <Caco>
2660.42

> <MDCK>
10000.0

> <HumanOralAbsorption>
3

> <PercentHumanOralAbsorption>
100.0

> <RuleOfFive>
0

> <base>
fda.sdf

$$$$
Molecule_1
                    3D
 Schrodinger Suite 2022-3.
 40 43  0  0  1  0            999 V2000
   -4.0040  -11.0231   35.6346 C   0  0  0  0  0  0
   -4.5194   -9.8074   35.1850 C   0  0  0  0  0  0
   -4.3046  -11.4756   36.9193 C   0  0  0  0  0  0
   -5.3353   -9.0443   36.0201 C   0  0  0  0  0  0
   -5.1205  -10.7125   37.7545 C   0  0  0  0  0  0
   -8.6640   -5.7030   37.2148 C   0  0  0  0  0  0
   -9.4099   -6.2663   36.1762 C   0  0  0  0  0  0
   -8.3277   -8.3784   36.5521 C   0  0  0  0  0  0
   -5.6360   -9.4968   37.3050 C   0  0  0  0  0  0
   -7.5583   -7.8132   37.5854 C   0  0  0  0  0  0
   -7.7452   -6.4667   37.9618 C   0  0  0  0  0  0
   -9.2508   -7.6066   35.8531 C   0  0  0  0  0  0
   -6.5085   -8.6807   38.1979 C   0  0  0  0  0  0
   -6.6183   -6.5334   40.1979 C   0  0  0  0  0  0
   -7.1071   -7.9523   40.3447 C   0  0  0  0  0  0
   -7.7213   -2.2280   40.0461 C   0  0  0  0  0  0
   -8.5587   -2.5105   38.8300 C   0  0  0  0  0  0
   -7.9245   -3.6450   39.5858 C   0  0  0  0  0  0
   -6.7944   -4.4087   38.9839 C   0  0  0  0  0  0
   -6.2907   -8.7639   39.4669 N   0  0  0  0  0  0
   -7.0367   -5.8498   39.0502 N   0  0  0  0  0  0
   -5.9298   -6.0352   41.0924 O   0  0  0  0  0  0
  -10.1800   -8.3056   34.5852 Cl  0  0  0  0  0  0
   -3.3686  -11.6172   34.9844 H   0  0  0  0  0  0
   -4.2849   -9.4551   34.1848 H   0  0  0  0  0  0
   -3.9036  -12.4224   37.2693 H   0  0  0  0  0  0
   -5.7316   -8.0985   35.6597 H   0  0  0  0  0  0
   -5.3481  -11.0750   38.7537 H   0  0  0  0  0  0
   -8.8505   -4.6573   37.4466 H   0  0  0  0  0  0
  -10.1198   -5.6436   35.6376 H   0  0  0  0  0  0
   -8.1995   -9.4250   36.2825 H   0  0  0  0  0  0
   -6.9456   -8.2708   41.3804 H   0  0  0  0  0  0
   -8.1832   -8.0405   40.1598 H   0  0  0  0  0  0
   -6.7532   -1.7671   39.8948 H   0  0  0  0  0  0
   -8.2323   -1.9130   40.9477 H   0  0  0  0  0  0
   -9.6311   -2.3852   38.9161 H   0  0  0  0  0  0
   -8.1514   -2.2385   37.8641 H   0  0  0  0  0  0
   -8.5726   -4.2781   40.1798 H   0  0  0  0  0  0
   -5.8632   -4.2018   39.5199 H   0  0  0  0  0  0
   -6.6622   -4.1410   37.9315 H   0  0  0  0  0  0
  1  2  2  0  0  0
  1  3  1  0  0  0
  1 24  1  0  0  0
  2  4  1  0  0  0
  2 25  1  0  0  0
  3  5  2  0  0  0
  3 26  1  0  0  0
  4  9  2  0  0  0
  4 27  1  0  0  0
  5  9  1  0  0  0
  5 28  1  0  0  0
  6  7  2  0  0  0
  6 11  1  0  0  0
  6 29  1  0  0  0
  7 12  1  0  0  0
  7 30  1  0  0  0
  8 10  1  0  0  0
  8 12  2  0  0  0
  8 31  1  0  0  0
  9 13  1  0  0  0
 10 11  2  0  0  0
 10 13  1  0  0  0
 11 21  1  0  0  0
 12 23  1  0  0  0
 13 20  2  0  0  0
 14 15  1  0  0  0
 14 21  1  0  0  0
 14 22  2  0  0  0
 15 20  1  0  0  0
 15 32  1  0  0  0
 15 33  1  0  0  0
 16 17  1  0  0  0
 16 18  1  0  0  0
 16 34  1  0  0  0
 16 35  1  0  0  0
 17 18  1  0  0  0
 17 36  1  0  0  0
 17 37  1  0  0  0
 18 19  1  0  0  0
 18 38  1  0  0  0
 19 21  1  0  0  0
 19 39  1  0  0  0
 19 40  1  0  0  0
M  END
> <EON_Query>
60c

> <EON_ET_pb>
0.12

> <EON_ET_coul>
0.11

> <EON_ET_combo>
0.704

> <EON_ShapeTanimoto>
0.584

> <ROCS_ShapeQuery>
60c

> <ROCS_TanimotoCombo>
0.766

> <ROCS_ShapeTanimoto>
0.578

> <ROCS_ColorTanimoto>
0.188

> <ROCS_RefTversky>
0.664

> <ROCS_RefColorTversky>
0.244

> <ROCS_RefTverskyCombo>
0.908

> <ROCS_FitTversky>
0.817

> <ROCS_FitColorTversky>
0.453

> <ROCS_FitTverskyCombo>
1.269

> <ROCS_ColorScore>
-2.377

> <ROCS_Overlap>
863.156

> <ROCS_Rank>
963

> <EON_Rank>
127

> <i_qp_#stars>
0

> <i_qp_#amine>
0

> <i_qp_#amidine>
0

> <i_qp_#acid>
0

> <i_qp_#amide>
0

> <i_qp_#rotor>
2

> <i_qp_#rtvFG>
0

> <i_qp_CNS>
1

> <r_qp_mol_MW>
324.809

> <r_qp_dipole>
4.30645

> <r_qp_SASA>
583.758

> <r_qp_FOSA>
209.411

> <r_qp_FISA>
52.9324

> <r_qp_PISA>
250.246

> <r_qp_WPSA>
71.1688

> <r_qp_volume>
1024.27

> <r_qp_donorHB>
0

> <r_qp_accptHB>
4

> <r_qp_dip^2/V>
0.0181061

> <r_qp_ACxDN^.5/SA>
0

> <r_qp_glob>
0.841798

> <r_qp_QPpolrz>
35.9429

> <r_qp_QPlogPC16>
10.3549

> <r_qp_QPlogPoct>
14.2465

> <r_qp_QPlogPw>
6.70997

> <r_qp_QPlogPo/w>
4.22763

> <r_qp_QPlogS>
-5.16964

> <r_qp_CIQPlogS>
-4.57553

> <r_qp_QPlogHERG>
-5.28529

> <r_qp_QPPCaco>
3118.47

> <r_qp_QPlogBB>
0.119612

> <r_qp_QPPMDCK>
4150.55

> <r_qp_QPlogKp>
-1.42148

> <r_qp_IP(eV)>
9.10999

> <r_qp_EA(eV)>
0.763369

> <i_qp_#metab>
1

> <r_qp_QPlogKhsa>
0.43653

> <i_qp_HumanOralAbsorption>
3

> <r_qp_PercentHumanOralAbsorption>
100

> <r_qp_SAfluorine>
0

> <r_qp_SAamideO>
0

> <r_qp_PSA>
44.7047

> <i_qp_#NandO>
3

> <i_qp_RuleOfFive>
0

> <i_qp_RuleOfThree>
0

> <i_qp_#ringatoms>
20

> <i_qp_#in34>
3

> <i_qp_#in56>
12

> <i_qp_#noncon>
4

> <i_qp_#nonHatm>
23

> <r_qp_Jm>
0.0832736

> <stars>
0

> <logP>
4.22763

> <Caco>
3118.47

> <MDCK>
4150.55

> <HumanOralAbsorption>
3

> <PercentHumanOralAbsorption>
100.0

> <RuleOfFive>
0

> <base>
fda.sdf

$$$$
S4599 Benzyl benzoate.cdx_5
                    3D
 Schrodinger Suite 2022-3.
 28 29  0  0  1  0            999 V2000
   -8.7491   -3.8461   38.1198 C   0  0  0  0  0  0
   -4.3587  -11.1744   35.1361 C   0  0  0  0  0  0
   -7.6948   -3.7203   39.0243 C   0  0  0  0  0  0
   -9.1069   -5.1045   37.6361 C   0  0  0  0  0  0
   -4.7287  -12.0062   36.1929 C   0  0  0  0  0  0
   -4.4995   -9.7917   35.2544 C   0  0  0  0  0  0
   -6.9981   -4.8532   39.4452 C   0  0  0  0  0  0
   -8.4103   -6.2374   38.0570 C   0  0  0  0  0  0
   -5.2397  -11.4552   37.3681 C   0  0  0  0  0  0
   -5.0104   -9.2408   36.4296 C   0  0  0  0  0  0
   -7.3559   -6.1117   38.9616 C   0  0  0  0  0  0
   -5.3805  -10.0726   37.4865 C   0  0  0  0  0  0
   -6.6295   -7.2927   39.4004 C   0  0  0  0  0  0
   -5.9303   -9.4793   38.7503 C   0  0  0  0  0  0
   -6.0893   -7.4112   40.5082 O   0  0  0  0  0  0
   -6.6165   -8.2628   38.4356 O   0  0  0  0  0  0
   -9.2914   -2.9640   37.7921 H   0  0  0  0  0  0
   -3.9596  -11.6035   34.2216 H   0  0  0  0  0  0
   -7.4162   -2.7404   39.4006 H   0  0  0  0  0  0
   -9.9280   -5.2024   36.9321 H   0  0  0  0  0  0
   -4.6181  -13.0828   36.1013 H   0  0  0  0  0  0
   -4.2105   -9.1438   34.4323 H   0  0  0  0  0  0
   -6.1782   -4.7438   40.1503 H   0  0  0  0  0  0
   -8.6977   -7.2130   37.6735 H   0  0  0  0  0  0
   -5.5255  -12.1111   38.1863 H   0  0  0  0  0  0
   -5.1168   -8.1624   36.5129 H   0  0  0  0  0  0
   -6.6298  -10.1688   39.2349 H   0  0  0  0  0  0
   -5.1244   -9.2637   39.4601 H   0  0  0  0  0  0
  1  3  2  0  0  0
  1  4  1  0  0  0
  1 17  1  0  0  0
  2  5  2  0  0  0
  2  6  1  0  0  0
  2 18  1  0  0  0
  3  7  1  0  0  0
  3 19  1  0  0  0
  4  8  2  0  0  0
  4 20  1  0  0  0
  5  9  1  0  0  0
  5 21  1  0  0  0
  6 10  2  0  0  0
  6 22  1  0  0  0
  7 11  2  0  0  0
  7 23  1  0  0  0
  8 11  1  0  0  0
  8 24  1  0  0  0
  9 12  2  0  0  0
  9 25  1  0  0  0
 10 12  1  0  0  0
 10 26  1  0  0  0
 11 13  1  0  0  0
 12 14  1  0  0  0
 13 15  2  0  0  0
 13 16  1  0  0  0
 14 16  1  0  0  0
 14 27  1  0  0  0
 14 28  1  0  0  0
M  END
> <EON_Query>
60c

> <EON_ET_pb>
0.119

> <EON_ET_coul>
0.101

> <EON_ET_combo>
0.701

> <EON_ShapeTanimoto>
0.582

> <ROCS_ShapeQuery>
60c

> <ROCS_TanimotoCombo>
0.807

> <ROCS_ShapeTanimoto>
0.615

> <ROCS_ColorTanimoto>
0.192

> <ROCS_RefTversky>
0.601

> <ROCS_RefColorTversky>
0.217

> <ROCS_RefTverskyCombo>
0.818

> <ROCS_FitTversky>
1.038

> <ROCS_FitColorTversky>
0.626

> <ROCS_FitTverskyCombo>
1.663

> <ROCS_ColorScore>
-2.096

> <ROCS_Overlap>
771.367

> <ROCS_Rank>
586

> <EON_Rank>
132

> <i_qp_#stars>
0

> <i_qp_#amine>
0

> <i_qp_#amidine>
0

> <i_qp_#acid>
0

> <i_qp_#amide>
0

> <i_qp_#rotor>
3

> <i_qp_#rtvFG>
1

> <i_qp_CNS>
1

> <r_qp_mol_MW>
212.248

> <r_qp_dipole>
3.04671

> <r_qp_SASA>
472.3

> <r_qp_FOSA>
38.3394

> <r_qp_FISA>
42.5491

> <r_qp_PISA>
391.411

> <r_qp_WPSA>
0

> <r_qp_volume>
775.007

> <r_qp_donorHB>
0

> <r_qp_accptHB>
2

> <r_qp_dip^2/V>
0.0119773

> <r_qp_ACxDN^.5/SA>
0

> <r_qp_glob>
0.863942

> <r_qp_QPpolrz>
26.6735

> <r_qp_QPlogPC16>
8.3883

> <r_qp_QPlogPoct>
9.64342

> <r_qp_QPlogPw>
5.11576

> <r_qp_QPlogPo/w>
3.54111

> <r_qp_QPlogS>
-3.63168

> <r_qp_CIQPlogS>
-3.37189

> <r_qp_QPlogHERG>
-5.60019

> <r_qp_QPPCaco>
3912.07

> <r_qp_QPlogBB>
0.00264873

> <r_qp_QPPMDCK>
2161.09

> <r_qp_QPlogKp>
-0.636825

> <r_qp_IP(eV)>
9.6214

> <r_qp_EA(eV)>
0.474061

> <i_qp_#metab>
1

> <r_qp_QPlogKhsa>
0.205467

> <i_qp_HumanOralAbsorption>
3

> <r_qp_PercentHumanOralAbsorption>
100

> <r_qp_SAfluorine>
0

> <r_qp_SAamideO>
0

> <r_qp_PSA>
33.2927

> <i_qp_#NandO>
2

> <i_qp_RuleOfFive>
0

> <i_qp_RuleOfThree>
0

> <i_qp_#ringatoms>
12

> <i_qp_#in34>
0

> <i_qp_#in56>
12

> <i_qp_#noncon>
0

> <i_qp_#nonHatm>
16

> <r_qp_Jm>
11.4377

> <stars>
0

> <logP>
3.54111

> <Caco>
3912.07

> <MDCK>
2161.09

> <HumanOralAbsorption>
3

> <PercentHumanOralAbsorption>
100.0

> <RuleOfFive>
0

> <base>
fda.sdf

$$$$
Buflomedil hydrochloride.cdx_296
                    3D
 Schrodinger Suite 2022-3.
 48 49  0  0  1  0            999 V2000
   -7.3446   -3.9441   39.7354 C   0  0  0  0  0  0
   -8.7221   -4.1306   37.7595 C   0  0  0  0  0  0
   -7.8711   -6.1217   38.8309 C   0  0  0  0  0  0
   -8.0875   -3.3425   38.7195 C   0  0  0  0  0  0
   -7.2363   -5.3337   39.7911 C   0  0  0  0  0  0
   -8.6140   -5.5202   37.8151 C   0  0  0  0  0  0
   -7.7546   -7.6086   38.8902 C   0  0  0  0  0  0
   -3.8257  -12.2434   36.2297 C   0  0  0  0  0  0
   -4.1712  -11.4267   35.0008 C   0  0  0  0  0  0
   -4.3357  -11.3730   37.3581 C   0  0  0  0  0  0
   -5.5559  -10.8794   35.2990 C   0  0  0  0  0  0
   -7.5189   -1.2418   39.6784 C   0  0  0  0  0  0
   -7.1974   -6.2213   41.9970 C   0  0  0  0  0  0
   -8.5012   -6.5766   35.6874 C   0  0  0  0  0  0
   -6.4929   -8.2197   39.4810 C   0  0  0  0  0  0
   -6.1691   -9.5832   38.8682 C   0  0  0  0  0  0
   -5.9946   -9.4771   37.3608 C   0  0  0  0  0  0
   -5.6349  -10.8210   36.8137 N   0  3  0  0  0  0
   -8.6767   -8.3001   38.4639 O   0  0  0  0  0  0
   -8.1930   -1.9867   38.6652 O   0  0  0  0  0  0
   -6.5055   -5.9005   40.7923 O   0  0  0  0  0  0
   -9.2419   -6.2714   36.8671 O   0  0  0  0  0  0
   -6.8498   -3.3296   40.4836 H   0  0  0  0  0  0
   -9.3008   -3.6611   36.9678 H   0  0  0  0  0  0
   -4.3566  -13.2026   36.2147 H   0  0  0  0  0  0
   -2.7539  -12.4447   36.3115 H   0  0  0  0  0  0
   -3.4593  -10.6006   34.8836 H   0  0  0  0  0  0
   -4.1500  -12.0195   34.0819 H   0  0  0  0  0  0
   -4.5494  -11.9215   38.2792 H   0  0  0  0  0  0
   -3.6630  -10.5309   37.5539 H   0  0  0  0  0  0
   -5.7173   -9.8827   34.8776 H   0  0  0  0  0  0
   -6.3474  -11.5608   34.9713 H   0  0  0  0  0  0
   -7.6847   -0.1738   39.5178 H   0  0  0  0  0  0
   -6.4494   -1.4644   39.6448 H   0  0  0  0  0  0
   -7.9180   -1.5274   40.6546 H   0  0  0  0  0  0
   -6.5001   -6.6660   42.7112 H   0  0  0  0  0  0
   -8.0071   -6.9218   41.7777 H   0  0  0  0  0  0
   -7.6154   -5.3054   42.4216 H   0  0  0  0  0  0
   -9.1169   -7.1796   35.0154 H   0  0  0  0  0  0
   -7.5941   -7.1234   35.9570 H   0  0  0  0  0  0
   -8.2275   -5.6439   35.1885 H   0  0  0  0  0  0
   -5.6555   -7.5374   39.2964 H   0  0  0  0  0  0
   -6.6361   -8.3370   40.5611 H   0  0  0  0  0  0
   -5.2545   -9.9849   39.3226 H   0  0  0  0  0  0
   -6.9732  -10.2926   39.1024 H   0  0  0  0  0  0
   -5.1826   -8.7963   37.0893 H   0  0  0  0  0  0
   -6.9177   -9.1679   36.8617 H   0  0  0  0  0  0
   -6.3579  -11.4540   37.0904 H   0  0  0  0  0  0
  1  4  2  0  0  0
  1  5  1  0  0  0
  1 23  1  0  0  0
  2  4  1  0  0  0
  2  6  2  0  0  0
  2 24  1  0  0  0
  3  5  2  0  0  0
  3  6  1  0  0  0
  3  7  1  0  0  0
  4 20  1  0  0  0
  5 21  1  0  0  0
  6 22  1  0  0  0
  7 15  1  0  0  0
  7 19  2  0  0  0
  8  9  1  0  0  0
  8 10  1  0  0  0
  8 25  1  0  0  0
  8 26  1  0  0  0
  9 11  1  0  0  0
  9 27  1  0  0  0
  9 28  1  0  0  0
 10 18  1  0  0  0
 10 29  1  0  0  0
 10 30  1  0  0  0
 11 18  1  0  0  0
 11 31  1  0  0  0
 11 32  1  0  0  0
 12 20  1  0  0  0
 12 33  1  0  0  0
 12 34  1  0  0  0
 12 35  1  0  0  0
 13 21  1  0  0  0
 13 36  1  0  0  0
 13 37  1  0  0  0
 13 38  1  0  0  0
 14 22  1  0  0  0
 14 39  1  0  0  0
 14 40  1  0  0  0
 14 41  1  0  0  0
 15 16  1  0  0  0
 15 42  1  0  0  0
 15 43  1  0  0  0
 16 17  1  0  0  0
 16 44  1  0  0  0
 16 45  1  0  0  0
 17 18  1  0  0  0
 17 46  1  0  0  0
 17 47  1  0  0  0
 18 48  1  0  0  0
M  CHG  1  18   1
M  END
> <EON_Query>
60c

> <EON_ET_pb>
0.089

> <EON_ET_coul>
0.073

> <EON_ET_combo>
0.698

> <EON_ShapeTanimoto>
0.609

> <ROCS_ShapeQuery>
60c

> <ROCS_TanimotoCombo>
0.908

> <ROCS_ShapeTanimoto>
0.647

> <ROCS_ColorTanimoto>
0.261

> <ROCS_RefTversky>
0.687

> <ROCS_RefColorTversky>
0.376

> <ROCS_RefTverskyCombo>
1.064

> <ROCS_FitTversky>
0.916

> <ROCS_FitColorTversky>
0.46

> <ROCS_FitTverskyCombo>
1.376

> <ROCS_ColorScore>
-3.728

> <ROCS_Overlap>
890.231

> <ROCS_Rank>
83

> <EON_Rank>
144

> <i_qp_#stars>
0

> <i_qp_#amine>
1

> <i_qp_#amidine>
0

> <i_qp_#acid>
0

> <i_qp_#amide>
0

> <i_qp_#rotor>
8

> <i_qp_#rtvFG>
0

> <i_qp_CNS>
1

> <r_qp_mol_MW>
307.389

> <r_qp_dipole>
5.45921

> <r_qp_SASA>
572.57

> <r_qp_FOSA>
477.258

> <r_qp_FISA>
28.9669

> <r_qp_PISA>
66.3456

> <r_qp_WPSA>
0

> <r_qp_volume>
1031

> <r_qp_donorHB>
0

> <r_qp_accptHB>
6.25

> <r_qp_dip^2/V>
0.0289068

> <r_qp_ACxDN^.5/SA>
0

> <r_qp_glob>
0.862004

> <r_qp_QPpolrz>
30.6035

> <r_qp_QPlogPC16>
8.50911

> <r_qp_QPlogPoct>
12.8384

> <r_qp_QPlogPw>
6.13674

> <r_qp_QPlogPo/w>
2.32782

> <r_qp_QPlogS>
-1.27301

> <r_qp_CIQPlogS>
-2.05393

> <r_qp_QPlogHERG>
-4.80747

> <r_qp_QPPCaco>
1312.52

> <r_qp_QPlogBB>
0.219983

> <r_qp_QPPMDCK>
734.326

> <r_qp_QPlogKp>
-3.11416

> <r_qp_IP(eV)>
8.88059

> <r_qp_EA(eV)>
0.363907

> <i_qp_#metab>
5

> <r_qp_QPlogKhsa>
-0.400554

> <i_qp_HumanOralAbsorption>
3

> <r_qp_PercentHumanOralAbsorption>
96.3838

> <r_qp_SAfluorine>
0

> <r_qp_SAamideO>
0

> <r_qp_PSA>
46.7471

> <i_qp_#NandO>
5

> <i_qp_RuleOfFive>
0

> <i_qp_RuleOfThree>
0

> <i_qp_#ringatoms>
11

> <i_qp_#in34>
0

> <i_qp_#in56>
11

> <i_qp_#noncon>
4

> <i_qp_#nonHatm>
22

> <r_qp_Jm>
12.6041

> <stars>
0

> <logP>
2.32782

> <Caco>
1312.52

> <MDCK>
734.326

> <HumanOralAbsorption>
3

> <PercentHumanOralAbsorption>
96.3838

> <RuleOfFive>
0

> <base>
fda.sdf

$$$$
Avanafil.cdx_179
                    3D
 Schrodinger Suite 2022-3.
 60 63  0  0  1  0            999 V2000
   -6.7881  -10.1328   36.8442 C   0  0  0  0  0  0
   -6.2724  -11.4267   36.7721 C   0  0  0  0  0  0
   -4.2446  -11.2651   40.5428 C   0  0  0  0  0  0
   -4.8843   -9.3050   35.6083 C   0  0  0  0  0  0
   -4.0521  -10.0771   41.2179 C   0  0  0  0  0  0
   -5.5536  -11.5677   40.2280 C   0  0  0  0  0  0
   -8.0183   -4.4108   39.6241 C   0  0  0  0  0  0
   -7.4787   -5.6532   39.3603 C   0  0  0  0  0  0
   -6.0941   -9.0719   36.2623 C   0  0  0  0  0  0
   -5.0626  -11.6599   36.1182 C   0  0  0  0  0  0
   -4.3685  -10.5991   35.5363 C   0  0  0  0  0  0
   -7.3609   -5.9817   38.0253 C   0  0  0  0  0  0
   -6.2842   -9.6474   41.2006 C   0  0  0  0  0  0
   -8.2488   -3.9837   37.4034 C   0  0  0  0  0  0
   -7.0718   -6.5275   40.4487 C   0  0  0  0  0  0
   -9.4592   -1.2078   35.2724 C   0  0  0  0  0  0
   -9.6867   -2.4335   34.4033 C   0  0  0  0  0  0
   -9.2173   -1.8017   36.6572 C   0  0  0  0  0  0
   -8.6979   -3.4638   34.9683 C   0  0  1  0  0  0
   -4.9816  -13.7279   34.9466 C   0  0  0  0  0  0
   -6.6497   -7.6793   36.3406 C   0  0  0  0  0  0
   -7.4246   -8.7428   41.5685 C   0  0  0  0  0  0
   -7.3181   -3.3289   34.3259 C   0  0  0  0  0  0
   -5.0528   -9.2409   41.5640 N   0  0  0  0  0  0
   -6.6019  -10.7787   40.5429 N   0  0  0  0  0  0
   -8.4155   -3.5474   38.6664 N   0  0  0  0  0  0
   -7.7375   -5.1681   37.0170 N   0  0  0  0  0  0
   -8.6440   -3.1242   36.3961 N   0  0  0  0  0  0
   -6.8137   -7.2450   37.6896 N   0  0  0  0  0  0
   -7.7026   -7.7743   40.5322 N   0  0  0  0  0  0
   -6.2147   -6.1562   41.2703 O   0  0  0  0  0  0
   -6.8231   -2.0279   34.5871 O   0  0  0  0  0  0
   -4.5831  -12.9347   36.0624 O   0  0  0  0  0  0
   -2.8704  -10.8591   34.7209 Cl  0  0  0  0  0  0
   -7.7312   -9.9603   37.3561 H   0  0  0  0  0  0
   -6.8186  -12.2483   37.2279 H   0  0  0  0  0  0
   -3.4229  -11.9169   40.2777 H   0  0  0  0  0  0
   -4.3483   -8.4731   35.1568 H   0  0  0  0  0  0
   -3.0577   -9.7550   41.5077 H   0  0  0  0  0  0
   -5.8033  -12.4806   39.6979 H   0  0  0  0  0  0
   -8.1543   -4.0552   40.6410 H   0  0  0  0  0  0
   -8.5699   -0.6630   34.9350 H   0  0  0  0  0  0
  -10.3050   -0.5146   35.2583 H   0  0  0  0  0  0
  -10.7143   -2.7930   34.5409 H   0  0  0  0  0  0
   -9.5382   -2.2299   33.3388 H   0  0  0  0  0  0
   -8.5423   -1.1788   37.2527 H   0  0  0  0  0  0
  -10.1700   -1.9023   37.1911 H   0  0  0  0  0  0
   -9.0845   -4.4714   34.7969 H   0  0  0  0  0  0
   -4.5304  -14.7201   35.0241 H   0  0  0  0  0  0
   -4.6629  -13.2422   34.0209 H   0  0  0  0  0  0
   -6.0701  -13.8239   34.9493 H   0  0  0  0  0  0
   -5.9850   -6.9696   35.8362 H   0  0  0  0  0  0
   -7.6257   -7.6174   35.8480 H   0  0  0  0  0  0
   -8.3375   -9.3230   41.7415 H   0  0  0  0  0  0
   -7.2086   -8.1934   42.4909 H   0  0  0  0  0  0
   -7.3920   -3.4757   33.2480 H   0  0  0  0  0  0
   -6.6348   -4.0654   34.7503 H   0  0  0  0  0  0
   -6.5427   -7.8324   38.4516 H   0  0  0  0  0  0
   -8.4402   -8.0021   39.8736 H   0  0  0  0  0  0
   -5.9471   -1.9671   34.1695 H   0  0  0  0  0  0
  1  2  2  0  0  0
  1  9  1  0  0  0
  1 35  1  0  0  0
  2 10  1  0  0  0
  2 36  1  0  0  0
  3  5  2  0  0  0
  3  6  1  0  0  0
  3 37  1  0  0  0
  4  9  2  0  0  0
  4 11  1  0  0  0
  4 38  1  0  0  0
  5 24  1  0  0  0
  5 39  1  0  0  0
  6 25  2  0  0  0
  6 40  1  0  0  0
  7  8  2  0  0  0
  7 26  1  0  0  0
  7 41  1  0  0  0
  8 12  1  0  0  0
  8 15  1  0  0  0
  9 21  1  0  0  0
 10 11  2  0  0  0
 10 33  1  0  0  0
 11 34  1  0  0  0
 12 27  2  0  0  0
 12 29  1  0  0  0
 13 22  1  0  0  0
 13 24  2  0  0  0
 13 25  1  0  0  0
 14 26  2  0  0  0
 14 27  1  0  0  0
 14 28  1  0  0  0
 15 30  1  0  0  0
 15 31  2  0  0  0
 16 17  1  0  0  0
 16 18  1  0  0  0
 16 42  1  0  0  0
 16 43  1  0  0  0
 17 19  1  0  0  0
 17 44  1  0  0  0
 17 45  1  0  0  0
 18 28  1  0  0  0
 18 46  1  0  0  0
 18 47  1  0  0  0
 19 23  1  0  0  0
 19 28  1  0  0  0
 19 48  1  0  0  0
 20 33  1  0  0  0
 20 49  1  0  0  0
 20 50  1  0  0  0
 20 51  1  0  0  0
 21 29  1  0  0  0
 21 52  1  0  0  0
 21 53  1  0  0  0
 22 30  1  0  0  0
 22 54  1  0  0  0
 22 55  1  0  0  0
 23 32  1  0  0  0
 23 56  1  0  0  0
 23 57  1  0  0  0
 29 58  1  0  0  0
 30 59  1  0  0  0
 32 60  1  0  0  0
M  END
> <EON_Query>
60c

> <EON_ET_pb>
0.257

> <EON_ET_coul>
0.297

> <EON_ET_combo>
0.697

> <EON_ShapeTanimoto>
0.439

> <ROCS_ShapeQuery>
60c

> <ROCS_TanimotoCombo>
0.713

> <ROCS_ShapeTanimoto>
0.544

> <ROCS_ColorTanimoto>
0.169

> <ROCS_RefTversky>
0.76

> <ROCS_RefColorTversky>
0.34

> <ROCS_RefTverskyCombo>
1.1

> <ROCS_FitTversky>
0.657

> <ROCS_FitColorTversky>
0.251

> <ROCS_FitTverskyCombo>
0.908

> <ROCS_ColorScore>
-3.472

> <ROCS_Overlap>
1006.25

> <ROCS_Rank>
1603

> <EON_Rank>
146

> <i_qp_#stars>
0

> <i_qp_#amine>
0

> <i_qp_#amidine>
0

> <i_qp_#acid>
0

> <i_qp_#amide>
0

> <i_qp_#rotor>
9

> <i_qp_#rtvFG>
0

> <i_qp_CNS>
-2

> <r_qp_mol_MW>
483.956

> <r_qp_dipole>
8.28475

> <r_qp_SASA>
749.726

> <r_qp_FOSA>
339.952

> <r_qp_FISA>
115.641

> <r_qp_PISA>
233.372

> <r_qp_WPSA>
60.7613

> <r_qp_volume>
1409.61

> <r_qp_donorHB>
2

> <r_qp_accptHB>
8.95

> <r_qp_dip^2/V>
0.0486921

> <r_qp_ACxDN^.5/SA>
0.0168825

> <r_qp_glob>
0.810954

> <r_qp_QPpolrz>
46.7086

> <r_qp_QPlogPC16>
14.656

> <r_qp_QPlogPoct>
24.0207

> <r_qp_QPlogPw>
13.6783

> <r_qp_QPlogPo/w>
3.98661

> <r_qp_QPlogS>
-5.42231

> <r_qp_CIQPlogS>
-6.54836

> <r_qp_QPlogHERG>
-5.70391

> <r_qp_QPPCaco>
793.011

> <r_qp_QPlogBB>
-1.0021

> <r_qp_QPPMDCK>
828.577

> <r_qp_QPlogKp>
-1.96457

> <r_qp_IP(eV)>
8.43265

> <r_qp_EA(eV)>
0.528737

> <i_qp_#metab>
7

> <r_qp_QPlogKhsa>
0.296575

> <i_qp_HumanOralAbsorption>
3

> <r_qp_PercentHumanOralAbsorption>
100

> <r_qp_SAfluorine>
0

> <r_qp_SAamideO>
0

> <r_qp_PSA>
114.741

> <i_qp_#NandO>
10

> <i_qp_RuleOfFive>
0

> <i_qp_RuleOfThree>
1

> <i_qp_#ringatoms>
23

> <i_qp_#in34>
0

> <i_qp_#in56>
23

> <i_qp_#noncon>
4

> <i_qp_#nonHatm>
34

> <r_qp_Jm>
0.0198576

> <stars>
0

> <logP>
3.98661

> <Caco>
793.011

> <MDCK>
828.577

> <HumanOralAbsorption>
3

> <PercentHumanOralAbsorption>
100.0

> <RuleOfFive>
0

> <base>
fda.sdf

$$$$
Molecule_139
                    3D
 Schrodinger Suite 2022-3.
 39 39  0  0  1  0            999 V2000
   -5.8204   -8.6881   41.2893 C   0  0  0  0  0  0
   -6.6517   -8.3252   39.0500 C   0  0  0  0  0  0
   -5.6703  -10.0471   41.0133 C   0  0  0  0  0  0
   -6.5016   -9.6842   38.7741 C   0  0  0  0  0  0
   -6.3112   -7.8271   40.3077 C   0  0  0  0  0  0
   -6.0109  -10.5452   39.7557 C   0  0  0  0  0  0
   -6.4677   -6.4103   40.5954 C   0  0  0  0  0  0
   -4.2197  -12.9316   34.8917 C   0  0  0  0  0  0
   -6.7057   -1.6182   38.4152 C   0  0  0  0  0  0
   -5.3739  -13.0590   35.8737 C   0  0  0  0  0  0
   -5.0242  -12.4424   37.2300 C   0  0  0  0  0  0
   -6.1849  -12.5020   38.2174 C   0  0  0  0  0  0
   -7.1562   -4.3197   39.6746 C   0  0  0  0  0  0
   -7.7008   -3.7469   38.3802 C   0  0  0  0  0  0
   -5.8612  -11.8991   39.4807 N   0  0  0  0  0  0
   -6.1918   -5.8813   41.6804 O   0  0  0  0  0  0
   -6.9586   -5.7286   39.5154 O   0  0  0  0  0  0
   -7.9163   -2.3505   38.5451 O   0  0  0  0  0  0
   -5.5519   -8.3107   42.2726 H   0  0  0  0  0  0
   -7.0352   -7.6632   38.2777 H   0  0  0  0  0  0
   -5.2869  -10.7092   41.7855 H   0  0  0  0  0  0
   -6.7700  -10.0618   37.7907 H   0  0  0  0  0  0
   -3.3193  -13.4187   35.2795 H   0  0  0  0  0  0
   -4.4786  -13.4046   33.9393 H   0  0  0  0  0  0
   -3.9851  -11.8805   34.6960 H   0  0  0  0  0  0
   -6.9078   -0.5524   38.5472 H   0  0  0  0  0  0
   -6.2739   -1.7986   37.4275 H   0  0  0  0  0  0
   -6.0044   -1.9517   39.1837 H   0  0  0  0  0  0
   -6.2572  -12.5622   35.4559 H   0  0  0  0  0  0
   -5.6231  -14.1195   35.9922 H   0  0  0  0  0  0
   -4.1510  -12.9548   37.6525 H   0  0  0  0  0  0
   -4.7435  -11.3921   37.0850 H   0  0  0  0  0  0
   -6.4924  -13.5351   38.4075 H   0  0  0  0  0  0
   -7.0461  -11.9587   37.8156 H   0  0  0  0  0  0
   -7.8575   -4.1650   40.5002 H   0  0  0  0  0  0
   -6.1923   -3.8639   39.9192 H   0  0  0  0  0  0
   -8.6561   -4.2102   38.1147 H   0  0  0  0  0  0
   -6.9834   -3.8892   37.5668 H   0  0  0  0  0  0
   -5.5016  -12.4940   40.2234 H   0  0  0  0  0  0
  1  3  2  0  0  0
  1  5  1  0  0  0
  1 19  1  0  0  0
  2  4  1  0  0  0
  2  5  2  0  0  0
  2 20  1  0  0  0
  3  6  1  0  0  0
  3 21  1  0  0  0
  4  6  2  0  0  0
  4 22  1  0  0  0
  5  7  1  0  0  0
  6 15  1  0  0  0
  7 16  2  0  0  0
  7 17  1  0  0  0
  8 10  1  0  0  0
  8 23  1  0  0  0
  8 24  1  0  0  0
  8 25  1  0  0  0
  9 18  1  0  0  0
  9 26  1  0  0  0
  9 27  1  0  0  0
  9 28  1  0  0  0
 10 11  1  0  0  0
 10 29  1  0  0  0
 10 30  1  0  0  0
 11 12  1  0  0  0
 11 31  1  0  0  0
 11 32  1  0  0  0
 12 15  1  0  0  0
 12 33  1  0  0  0
 12 34  1  0  0  0
 13 14  1  0  0  0
 13 17  1  0  0  0
 13 35  1  0  0  0
 13 36  1  0  0  0
 14 18  1  0  0  0
 14 37  1  0  0  0
 14 38  1  0  0  0
 15 39  1  0  0  0
M  END
> <EON_Query>
60c

> <EON_ET_pb>
0.203

> <EON_ET_coul>
0.288

> <EON_ET_combo>
0.694

> <EON_ShapeTanimoto>
0.491

> <ROCS_ShapeQuery>
60c

> <ROCS_TanimotoCombo>
0.747

> <ROCS_ShapeTanimoto>
0.508

> <ROCS_ColorTanimoto>
0.239

> <ROCS_RefTversky>
0.543

> <ROCS_RefColorTversky>
0.297

> <ROCS_RefTverskyCombo>
0.839

> <ROCS_FitTversky>
0.888

> <ROCS_FitColorTversky>
0.551

> <ROCS_FitTverskyCombo>
1.439

> <ROCS_ColorScore>
-2.893

> <ROCS_Overlap>
697.452

> <ROCS_Rank>
1174

> <EON_Rank>
158

> <i_qp_#stars>
0

> <i_qp_#amine>
0

> <i_qp_#amidine>
0

> <i_qp_#acid>
0

> <i_qp_#amide>
0

> <i_qp_#rotor>
8

> <i_qp_#rtvFG>
1

> <i_qp_CNS>
0

> <r_qp_mol_MW>
251.325

> <r_qp_dipole>
6.06817

> <r_qp_SASA>
563.882

> <r_qp_FOSA>
366.795

> <r_qp_FISA>
67.7938

> <r_qp_PISA>
129.294

> <r_qp_WPSA>
0

> <r_qp_volume>
938.634

> <r_qp_donorHB>
1

> <r_qp_accptHB>
4.7

> <r_qp_dip^2/V>
0.03923

> <r_qp_ACxDN^.5/SA>
0.00833507

> <r_qp_glob>
0.822194

> <r_qp_QPpolrz>
27.5081

> <r_qp_QPlogPC16>
8.43399

> <r_qp_QPlogPoct>
12.6521

> <r_qp_QPlogPw>
6.74604

> <r_qp_QPlogPo/w>
3.22167

> <r_qp_QPlogS>
-3.57102

> <r_qp_CIQPlogS>
-2.84268

> <r_qp_QPlogHERG>
-5.02568

> <r_qp_QPPCaco>
2254.3

> <r_qp_QPlogBB>
-0.587221

> <r_qp_QPPMDCK>
1191

> <r_qp_QPlogKp>
-1.5454

> <r_qp_IP(eV)>
8.42899

> <r_qp_EA(eV)>
0.194471

> <i_qp_#metab>
3

> <r_qp_QPlogKhsa>
-0.0773168

> <i_qp_HumanOralAbsorption>
3

> <r_qp_PercentHumanOralAbsorption>
100

> <r_qp_SAfluorine>
0

> <r_qp_SAamideO>
0

> <r_qp_PSA>
56.761

> <i_qp_#NandO>
4

> <i_qp_RuleOfFive>
0

> <i_qp_RuleOfThree>
0

> <i_qp_#ringatoms>
6

> <i_qp_#in34>
0

> <i_qp_#in56>
6

> <i_qp_#noncon>
0

> <i_qp_#nonHatm>
18

> <r_qp_Jm>
1.92228

> <stars>
0

> <logP>
3.22167

> <Caco>
2254.3

> <MDCK>
1191.0

> <HumanOralAbsorption>
3

> <PercentHumanOralAbsorption>
100.0

> <RuleOfFive>
0

> <base>
fda.sdf

$$$$
untitled.cdx_0
                    3D
 Schrodinger Suite 2022-3.
 41 43  0  0  1  0            999 V2000
   -3.7570  -12.9060   34.1164 C   0  0  0  0  0  0
   -2.7016  -13.7977   34.2726 C   0  0  0  0  0  0
   -8.2152   -6.9416   38.3746 C   0  0  0  0  0  0
   -5.5763  -11.0384   39.9888 C   0  0  0  0  0  0
   -8.7427   -5.7144   37.9729 C   0  0  0  0  0  0
   -5.0214  -12.3170   40.0394 C   0  0  0  0  0  0
   -4.3576  -12.3449   35.2379 C   0  0  0  0  0  0
   -5.0015  -10.8815   37.6475 C   0  0  0  0  0  0
   -7.3598   -4.5867   39.6017 C   0  0  0  0  0  0
   -2.2877  -14.0931   35.5615 C   0  0  0  0  0  0
   -4.4464  -12.1602   37.6980 C   0  0  0  0  0  0
   -7.2602   -6.9913   39.3900 C   0  0  0  0  0  0
   -5.5663  -10.3205   38.7928 C   0  0  0  0  0  0
   -8.3150   -4.5369   38.5863 C   0  0  0  0  0  0
   -4.4564  -12.8780   38.8941 C   0  0  0  0  0  0
   -6.8325   -5.8139   40.0035 C   0  0  0  0  0  0
   -3.8696  -12.7054   36.4835 C   0  0  0  0  0  0
   -6.7330   -8.3099   39.7811 C   0  0  0  0  0  0
   -7.8862   -2.4587   36.7833 C   0  0  0  0  0  0
   -2.8465  -13.5680   36.6749 N   0  0  0  0  0  0
   -6.1216   -9.0416   38.7429 N   0  0  0  0  0  0
   -6.8632   -8.7280   40.9297 O   0  0  0  0  0  0
  -10.2839   -3.2463   37.4942 O   0  0  0  0  0  0
   -8.8394   -2.0475   39.1742 O   0  0  0  0  0  0
   -8.9743   -3.0010   38.0814 S   0  0  0  0  0  0
   -3.7838  -14.4670   39.0150 Cl  0  0  0  0  0  0
   -5.6534   -5.8328   41.2653 Cl  0  0  0  0  0  0
   -4.1115  -12.6498   33.1226 H   0  0  0  0  0  0
   -2.2200  -14.2495   33.4132 H   0  0  0  0  0  0
   -8.5572   -7.8522   37.8893 H   0  0  0  0  0  0
   -6.0134  -10.6110   40.8875 H   0  0  0  0  0  0
   -9.4870   -5.6861   37.1817 H   0  0  0  0  0  0
   -5.0375  -12.8623   40.9798 H   0  0  0  0  0  0
   -5.1811  -11.6470   35.1248 H   0  0  0  0  0  0
   -4.9968  -10.3158   36.7173 H   0  0  0  0  0  0
   -7.0309   -3.6655   40.0772 H   0  0  0  0  0  0
   -1.4686  -14.7826   35.7383 H   0  0  0  0  0  0
   -8.2414   -1.4944   36.4166 H   0  0  0  0  0  0
   -6.8800   -2.3643   37.1944 H   0  0  0  0  0  0
   -7.9053   -3.2021   35.9851 H   0  0  0  0  0  0
   -6.0795   -8.5722   37.8311 H   0  0  0  0  0  0
  1  2  2  0  0  0
  1  7  1  0  0  0
  1 28  1  0  0  0
  2 10  1  0  0  0
  2 29  1  0  0  0
  3  5  2  0  0  0
  3 12  1  0  0  0
  3 30  1  0  0  0
  4  6  2  0  0  0
  4 13  1  0  0  0
  4 31  1  0  0  0
  5 14  1  0  0  0
  5 32  1  0  0  0
  6 15  1  0  0  0
  6 33  1  0  0  0
  7 17  2  0  0  0
  7 34  1  0  0  0
  8 11  1  0  0  0
  8 13  2  0  0  0
  8 35  1  0  0  0
  9 14  2  0  0  0
  9 16  1  0  0  0
  9 36  1  0  0  0
 10 20  2  0  0  0
 10 37  1  0  0  0
 11 15  2  0  0  0
 11 17  1  0  0  0
 12 16  2  0  0  0
 12 18  1  0  0  0
 13 21  1  0  0  0
 14 25  1  0  0  0
 15 26  1  0  0  0
 16 27  1  0  0  0
 17 20  1  0  0  0
 18 21  1  0  0  0
 18 22  2  0  0  0
 19 25  1  0  0  0
 19 38  1  0  0  0
 19 39  1  0  0  0
 19 40  1  0  0  0
 21 41  1  0  0  0
 23 25  2  0  0  0
 24 25  2  0  0  0
M  END
> <EON_Query>
60c

> <EON_ET_pb>
0.178

> <EON_ET_coul>
0.191

> <EON_ET_combo>
0.691

> <EON_ShapeTanimoto>
0.512

> <ROCS_ShapeQuery>
60c

> <ROCS_TanimotoCombo>
0.738

> <ROCS_ShapeTanimoto>
0.513

> <ROCS_ColorTanimoto>
0.224

> <ROCS_RefTversky>
0.65

> <ROCS_RefColorTversky>
0.333

> <ROCS_RefTverskyCombo>
0.983

> <ROCS_FitTversky>
0.709

> <ROCS_FitColorTversky>
0.407

> <ROCS_FitTverskyCombo>
1.116

> <ROCS_ColorScore>
-3.297

> <ROCS_Overlap>
849.817

> <ROCS_Rank>
1282

> <EON_Rank>
175

> <i_qp_#stars>
0

> <i_qp_#amine>
0

> <i_qp_#amidine>
0

> <i_qp_#acid>
0

> <i_qp_#amide>
0

> <i_qp_#rotor>
4

> <i_qp_#rtvFG>
0

> <i_qp_CNS>
0

> <r_qp_mol_MW>
421.297

> <r_qp_dipole>
9.78204

> <r_qp_SASA>
669.061

> <r_qp_FOSA>
81.5006

> <r_qp_FISA>
119.653

> <r_qp_PISA>
351.624

> <r_qp_WPSA>
116.284

> <r_qp_volume>
1163.55

> <r_qp_donorHB>
1

> <r_qp_accptHB>
7.5

> <r_qp_dip^2/V>
0.0822384

> <r_qp_ACxDN^.5/SA>
0.0112097

> <r_qp_glob>
0.79963

> <r_qp_QPpolrz>
41.2008

> <r_qp_QPlogPC16>
13.4058

> <r_qp_QPlogPoct>
20.8397

> <r_qp_QPlogPw>
12.5453

> <r_qp_QPlogPo/w>
3.45821

> <r_qp_QPlogS>
-5.54351

> <r_qp_CIQPlogS>
-5.85084

> <r_qp_QPlogHERG>
-6.45108

> <r_qp_QPPCaco>
726.496

> <r_qp_QPlogBB>
-0.639795

> <r_qp_QPPMDCK>
1518.31

> <r_qp_QPlogKp>
-2.10199

> <r_qp_IP(eV)>
8.75211

> <r_qp_EA(eV)>
1.38606

> <i_qp_#metab>
1

> <r_qp_QPlogKhsa>
0.121183

> <i_qp_HumanOralAbsorption>
3

> <r_qp_PercentHumanOralAbsorption>
100

> <r_qp_SAfluorine>
0

> <r_qp_SAamideO>
0

> <r_qp_PSA>
78.5232

> <i_qp_#NandO>
5

> <i_qp_RuleOfFive>
0

> <i_qp_RuleOfThree>
0

> <i_qp_#ringatoms>
18

> <i_qp_#in34>
0

> <i_qp_#in56>
18

> <i_qp_#noncon>
0

> <i_qp_#nonHatm>
27

> <r_qp_Jm>
0.00952977

> <stars>
0

> <logP>
3.45821

> <Caco>
726.496

> <MDCK>
1518.31

> <HumanOralAbsorption>
3

> <PercentHumanOralAbsorption>
100.0

> <RuleOfFive>
0

> <base>
fda.sdf

$$$$
BindingDB_50408018_mol_1_2
                    3D
 Schrodinger Suite 2022-3.
 36 38  0  0  1  0            999 V2000
   -4.0030  -11.0176   35.6293 C   0  0  0  0  0  0
   -4.5485   -9.8156   35.1785 C   0  0  0  0  0  0
   -4.2761  -11.4661   36.9215 C   0  0  0  0  0  0
   -5.3671   -9.0622   36.0198 C   0  0  0  0  0  0
   -5.0947  -10.7127   37.7629 C   0  0  0  0  0  0
   -8.7431   -5.7774   37.2383 C   0  0  0  0  0  0
   -9.4926   -6.3630   36.2148 C   0  0  0  0  0  0
   -8.3640   -8.4507   36.5903 C   0  0  0  0  0  0
   -5.6403   -9.5108   37.3121 C   0  0  0  0  0  0
   -7.5910   -7.8628   37.6082 C   0  0  0  0  0  0
   -7.7987   -6.5174   37.9774 C   0  0  0  0  0  0
   -9.3120   -7.7024   35.8993 C   0  0  0  0  0  0
   -6.5156   -8.7050   38.2117 C   0  0  0  0  0  0
   -6.6387   -6.5451   40.1973 C   0  0  0  0  0  0
   -7.0974   -7.9721   40.3616 C   0  0  0  0  0  0
   -6.8738   -4.4335   38.9705 C   0  0  0  0  0  0
   -7.5359   -3.7091   40.1154 C   0  0  0  0  0  0
   -6.2780   -8.7744   39.4779 N   0  0  0  0  0  0
   -7.0869   -5.8786   39.0509 N   0  0  0  0  0  0
   -5.9472   -6.0269   41.0780 O   0  0  0  0  0  0
   -7.3220   -2.3781   40.0193 F   0  0  0  0  0  0
   -8.8709   -3.9096   40.1197 F   0  0  0  0  0  0
   -7.0465   -4.1170   41.3057 F   0  0  0  0  0  0
  -10.2455   -8.4289   34.6501 Cl  0  0  0  0  0  0
   -3.3655  -11.6041   34.9743 H   0  0  0  0  0  0
   -4.3356   -9.4664   34.1724 H   0  0  0  0  0  0
   -3.8515  -12.4022   37.2725 H   0  0  0  0  0  0
   -5.7871   -8.1271   35.6582 H   0  0  0  0  0  0
   -5.3006  -11.0720   38.7679 H   0  0  0  0  0  0
   -8.9466   -4.7338   37.4652 H   0  0  0  0  0  0
  -10.2223   -5.7583   35.6821 H   0  0  0  0  0  0
   -8.2193   -9.4966   36.3265 H   0  0  0  0  0  0
   -6.9148   -8.2796   41.3972 H   0  0  0  0  0  0
   -8.1741   -8.0827   40.1931 H   0  0  0  0  0  0
   -5.7941   -4.2570   38.9744 H   0  0  0  0  0  0
   -7.2771   -4.0921   38.0127 H   0  0  0  0  0  0
  1  2  2  0  0  0
  1  3  1  0  0  0
  1 25  1  0  0  0
  2  4  1  0  0  0
  2 26  1  0  0  0
  3  5  2  0  0  0
  3 27  1  0  0  0
  4  9  2  0  0  0
  4 28  1  0  0  0
  5  9  1  0  0  0
  5 29  1  0  0  0
  6  7  2  0  0  0
  6 11  1  0  0  0
  6 30  1  0  0  0
  7 12  1  0  0  0
  7 31  1  0  0  0
  8 10  1  0  0  0
  8 12  2  0  0  0
  8 32  1  0  0  0
  9 13  1  0  0  0
 10 11  2  0  0  0
 10 13  1  0  0  0
 11 19  1  0  0  0
 12 24  1  0  0  0
 13 18  2  0  0  0
 14 15  1  0  0  0
 14 19  1  0  0  0
 14 20  2  0  0  0
 15 18  1  0  0  0
 15 33  1  0  0  0
 15 34  1  0  0  0
 16 17  1  0  0  0
 16 19  1  0  0  0
 16 35  1  0  0  0
 16 36  1  0  0  0
 17 21  1  0  0  0
 17 22  1  0  0  0
 17 23  1  0  0  0
M  END
> <EON_Query>
60c

> <EON_ET_pb>
0.134

> <EON_ET_coul>
0.141

> <EON_ET_combo>
0.686

> <EON_ShapeTanimoto>
0.553

> <ROCS_ShapeQuery>
60c

> <ROCS_TanimotoCombo>
0.732

> <ROCS_ShapeTanimoto>
0.544

> <ROCS_ColorTanimoto>
0.188

> <ROCS_RefTversky>
0.653

> <ROCS_RefColorTversky>
0.244

> <ROCS_RefTverskyCombo>
0.896

> <ROCS_FitTversky>
0.765

> <ROCS_FitColorTversky>
0.452

> <ROCS_FitTverskyCombo>
1.217

> <ROCS_ColorScore>
-2.375

> <ROCS_Overlap>
850.182

> <ROCS_Rank>
1359

> <EON_Rank>
185

> <i_qp_#stars>
0

> <i_qp_#amine>
0

> <i_qp_#amidine>
0

> <i_qp_#acid>
0

> <i_qp_#amide>
0

> <i_qp_#rotor>
1

> <i_qp_#rtvFG>
0

> <i_qp_CNS>
2

> <r_qp_mol_MW>
352.743

> <r_qp_dipole>
6.08779

> <r_qp_SASA>
558.343

> <r_qp_FOSA>
82.3418

> <r_qp_FISA>
43.6299

> <r_qp_PISA>
259.966

> <r_qp_WPSA>
172.406

> <r_qp_volume>
970.383

> <r_qp_donorHB>
0

> <r_qp_accptHB>
4

> <r_qp_dip^2/V>
0.0381924

> <r_qp_ACxDN^.5/SA>
0

> <r_qp_glob>
0.84897

> <r_qp_QPpolrz>
34.5213

> <r_qp_QPlogPC16>
9.1997

> <r_qp_QPlogPoct>
14.5398

> <r_qp_QPlogPw>
6.90767

> <r_qp_QPlogPo/w>
4.33806

> <r_qp_QPlogS>
-5.29212

> <r_qp_CIQPlogS>
-5.36313

> <r_qp_QPlogHERG>
-5.21559

> <r_qp_QPPCaco>
3820.83

> <r_qp_QPlogBB>
0.52274

> <r_qp_QPPMDCK>
10000

> <r_qp_QPlogKp>
-1.31181

> <r_qp_IP(eV)>
9.42135

> <r_qp_EA(eV)>
0.979581

> <i_qp_#metab>
1

> <r_qp_QPlogKhsa>
0.322562

> <i_qp_HumanOralAbsorption>
3

> <r_qp_PercentHumanOralAbsorption>
100

> <r_qp_SAfluorine>
101.237

> <r_qp_SAamideO>
0

> <r_qp_PSA>
41.7208

> <i_qp_#NandO>
3

> <i_qp_RuleOfFive>
0

> <i_qp_RuleOfThree>
0

> <i_qp_#ringatoms>
17

> <i_qp_#in34>
0

> <i_qp_#in56>
12

> <i_qp_#noncon>
1

> <i_qp_#nonHatm>
24

> <r_qp_Jm>
0.0878069

> <stars>
0

> <logP>
4.33806

> <Caco>
3820.83

> <MDCK>
10000.0

> <HumanOralAbsorption>
3

> <PercentHumanOralAbsorption>
100.0

> <RuleOfFive>
0

> <base>
fda.sdf

$$$$
16219285_2
                    3D
 Schrodinger Suite 2022-3.
 52 56  0  0  1  0            999 V2000
   -1.9081  -13.3384   37.4547 C   0  0  0  0  0  0
   -2.9217  -12.8945   36.9895 C   0  0  0  0  0  0
   -8.7139   -4.8039   37.6944 C   0  0  0  0  0  0
   -8.0400   -5.9038   38.2400 C   0  0  0  0  0  0
   -7.5354   -5.4546   39.4441 C   0  0  0  0  0  0
   -6.7749   -6.2472   40.3345 C   0  0  0  0  0  0
   -6.7355   -7.5766   40.1033 C   0  0  0  0  0  0
   -7.7982   -7.2892   37.7578 C   0  0  0  0  0  0
   -5.8469   -8.4850   40.9124 C   0  0  0  0  0  0
   -4.8042   -9.1802   40.0228 C   0  0  0  0  0  0
   -3.9309   -9.9075   36.4155 C   0  0  0  0  0  0
   -7.1946  -10.1439   37.1581 C   0  0  0  0  0  0
   -3.8449  -11.1462   35.5158 C   0  0  0  0  0  0
   -6.5661  -11.5180   36.8985 C   0  0  0  0  0  0
   -5.2490   -9.3294   38.5474 C   0  0  2  0  0  0
   -6.7738   -9.5674   38.5080 C   0  0  1  0  0  0
   -4.4178  -10.3935   37.8004 C   0  0  1  0  0  0
   -4.1696  -12.3474   36.4164 C   0  0  2  0  0  0
   -7.5400   -8.2697   38.9598 C   0  0  1  0  0  0
   -5.1314  -11.7321   37.4863 C   0  0  2  0  0  0
   -8.9140   -8.6889   39.5434 C   0  0  0  0  0  0
   -5.2451  -12.6289   38.7370 C   0  0  0  0  0  0
   -8.6379   -3.7340   38.4905 N   0  0  0  0  0  0
   -7.8876   -4.1420   39.5873 O   0  0  0  0  0  0
   -4.8090  -13.3778   35.6749 O   0  0  0  0  0  0
   -1.0088  -13.7325   37.8676 H   0  0  0  0  0  0
   -9.2483   -4.7263   36.7591 H   0  0  0  0  0  0
   -6.2155   -5.7762   41.1348 H   0  0  0  0  0  0
   -8.6453   -7.6264   37.1498 H   0  0  0  0  0  0
   -6.9151   -7.2556   37.1074 H   0  0  0  0  0  0
   -5.3269   -7.9379   41.7162 H   0  0  0  0  0  0
   -6.4673   -9.2379   41.4264 H   0  0  0  0  0  0
   -3.8766   -8.6030   40.0514 H   0  0  0  0  0  0
   -4.5786  -10.1472   40.4765 H   0  0  0  0  0  0
   -2.9380   -9.4551   36.5080 H   0  0  0  0  0  0
   -4.5836   -9.1504   35.9746 H   0  0  0  0  0  0
   -6.9370   -9.4789   36.3332 H   0  0  0  0  0  0
   -8.2822  -10.2637   37.1212 H   0  0  0  0  0  0
   -4.5436  -11.0547   34.6772 H   0  0  0  0  0  0
   -2.8359  -11.2115   35.0919 H   0  0  0  0  0  0
   -7.2376  -12.2637   37.3360 H   0  0  0  0  0  0
   -6.5528  -11.7102   35.8229 H   0  0  0  0  0  0
   -5.0805   -8.3382   38.0762 H   0  0  0  0  0  0
   -6.9647  -10.3522   39.2607 H   0  0  0  0  0  0
   -3.5320  -10.6155   38.4279 H   0  0  0  0  0  0
   -9.4859   -9.1715   38.7640 H   0  0  0  0  0  0
   -9.4251   -7.8025   39.8907 H   0  0  0  0  0  0
   -8.7453   -9.3716   40.3638 H   0  0  0  0  0  0
   -4.2552  -12.7745   39.1397 H   0  0  0  0  0  0
   -5.6770  -13.5713   38.4390 H   0  0  0  0  0  0
   -5.8780  -12.1302   39.4541 H   0  0  0  0  0  0
   -4.1873  -13.6452   34.9802 H   0  0  0  0  0  0
  1  2  3  0  0  0
  1 26  1  0  0  0
  2 18  1  0  0  0
  3  4  1  0  0  0
  3 23  2  0  0  0
  3 27  1  0  0  0
  4  5  2  0  0  0
  4  8  1  0  0  0
  5  6  1  0  0  0
  5 24  1  0  0  0
  6  7  2  0  0  0
  6 28  1  0  0  0
  7  9  1  0  0  0
  7 19  1  0  0  0
  8 19  1  0  0  0
  8 29  1  0  0  0
  8 30  1  0  0  0
  9 10  1  0  0  0
  9 31  1  0  0  0
  9 32  1  0  0  0
 10 15  1  0  0  0
 10 33  1  0  0  0
 10 34  1  0  0  0
 11 13  1  0  0  0
 11 17  1  0  0  0
 11 35  1  0  0  0
 11 36  1  0  0  0
 12 14  1  0  0  0
 12 16  1  0  0  0
 12 37  1  0  0  0
 12 38  1  0  0  0
 13 18  1  0  0  0
 13 39  1  0  0  0
 13 40  1  0  0  0
 14 20  1  0  0  0
 14 41  1  0  0  0
 14 42  1  0  0  0
 15 16  1  0  0  0
 15 17  1  0  0  0
 15 43  1  0  0  0
 16 19  1  0  0  0
 16 44  1  0  0  0
 17 20  1  0  0  0
 17 45  1  0  0  0
 18 20  1  0  0  0
 18 25  1  0  0  0
 19 21  1  0  0  0
 20 22  1  0  0  0
 21 46  1  0  0  0
 21 47  1  0  0  0
 21 48  1  0  0  0
 22 49  1  0  0  0
 22 50  1  0  0  0
 22 51  1  0  0  0
 23 24  1  0  0  0
 25 52  1  0  0  0
M  END
> <EON_Query>
60c

> <EON_ET_pb>
0.224

> <EON_ET_coul>
0.254

> <EON_ET_combo>
0.682

> <EON_ShapeTanimoto>
0.458

> <ROCS_ShapeQuery>
60c

> <ROCS_TanimotoCombo>
0.8

> <ROCS_ShapeTanimoto>
0.536

> <ROCS_ColorTanimoto>
0.265

> <ROCS_RefTversky>
0.657

> <ROCS_RefColorTversky>
0.401

> <ROCS_RefTverskyCombo>
1.057

> <ROCS_FitTversky>
0.744

> <ROCS_FitColorTversky>
0.438

> <ROCS_FitTverskyCombo>
1.182

> <ROCS_ColorScore>
-3.989

> <ROCS_Overlap>
856.694

> <ROCS_Rank>
628

> <EON_Rank>
195

> <i_qp_#stars>
0

> <i_qp_#amine>
0

> <i_qp_#amidine>
0

> <i_qp_#acid>
0

> <i_qp_#amide>
0

> <i_qp_#rotor>
2

> <i_qp_#rtvFG>
0

> <i_qp_CNS>
0

> <r_qp_mol_MW>
337.461

> <r_qp_dipole>
5.81938

> <r_qp_SASA>
574.585

> <r_qp_FOSA>
352.487

> <r_qp_FISA>
99.05

> <r_qp_PISA>
123.048

> <r_qp_WPSA>
0

> <r_qp_volume>
1064.75

> <r_qp_donorHB>
1.5

> <r_qp_accptHB>
2.25

> <r_qp_dip^2/V>
0.0318057

> <r_qp_ACxDN^.5/SA>
0.00479594

> <r_qp_glob>
0.877625

> <r_qp_QPpolrz>
36.3482

> <r_qp_QPlogPC16>
10.1084

> <r_qp_QPlogPoct>
15.6149

> <r_qp_QPlogPw>
6.58473

> <r_qp_QPlogPo/w>
4.36724

> <r_qp_QPlogS>
-5.50982

> <r_qp_CIQPlogS>
-5.44355

> <r_qp_QPlogHERG>
-4.09896

> <r_qp_QPPCaco>
1139.22

> <r_qp_QPlogBB>
-0.414394

> <r_qp_QPPMDCK>
569.558

> <r_qp_QPlogKp>
-2.71951

> <r_qp_IP(eV)>
9.06714

> <r_qp_EA(eV)>
0.667351

> <i_qp_#metab>
3

> <r_qp_QPlogKhsa>
0.95292

> <i_qp_HumanOralAbsorption>
3

> <r_qp_PercentHumanOralAbsorption>
100

> <r_qp_SAfluorine>
0

> <r_qp_SAamideO>
0

> <r_qp_PSA>
47.2676

> <i_qp_#NandO>
3

> <i_qp_RuleOfFive>
0

> <i_qp_RuleOfThree>
0

> <i_qp_#ringatoms>
20

> <i_qp_#in34>
0

> <i_qp_#in56>
20

> <i_qp_#noncon>
13

> <i_qp_#nonHatm>
25

> <r_qp_Jm>
0.0021371

> <stars>
0

> <logP>
4.36724

> <Caco>
1139.22

> <MDCK>
569.558

> <HumanOralAbsorption>
3

> <PercentHumanOralAbsorption>
100.0

> <RuleOfFive>
0

> <base>
fda.sdf

$$$$
BindingDB_50019693_mol_1_246
                    3D
 Schrodinger Suite 2022-3.
 58 62  0  0  1  0            999 V2000
   -3.8972  -11.8706   33.1396 C   0  0  0  0  0  0
   -3.3670  -10.6942   33.6690 C   0  0  0  0  0  0
   -4.2989  -12.9005   33.9902 C   0  0  0  0  0  0
   -3.2465  -10.5417   35.0503 C   0  0  0  0  0  0
   -7.4253   -3.1395   39.8581 C   0  0  0  0  0  0
   -8.4500   -5.0000   38.0679 C   0  0  0  0  0  0
   -7.1653   -4.5103   40.0294 C   0  0  0  0  0  0
   -7.6775   -5.4608   39.1312 C   0  0  0  0  0  0
   -4.1642  -12.7539   35.3713 C   0  0  0  0  0  0
   -3.6567  -11.5680   35.9025 C   0  0  0  0  0  0
   -8.2003   -2.7069   38.7865 C   0  0  0  0  0  0
   -8.7131   -3.6385   37.8907 C   0  0  0  0  0  0
   -6.3983   -5.0086   41.0788 C   0  0  0  0  0  0
   -6.6775   -7.1306   40.3427 C   0  0  0  0  0  0
   -5.6314  -11.9090   38.2428 C   0  0  0  0  0  0
   -5.0761   -9.0479   40.4898 C   0  0  0  0  0  0
   -7.4827   -9.4775   40.2237 C   0  0  0  0  0  0
   -4.7906   -9.6751   39.1252 C   0  0  0  0  0  0
   -7.2190  -10.1118   38.8554 C   0  0  0  0  0  0
   -4.0396  -13.7225   37.4774 C   0  0  0  0  0  0
   -4.1846  -12.3278   38.0526 C   0  0  1  0  0  0
   -7.5195   -0.6350   37.8381 C   0  0  0  0  0  0
   -9.9613   -4.2561   35.9630 C   0  0  0  0  0  0
   -7.4348   -6.7742   39.2855 N   0  0  0  0  0  0
   -6.1361   -6.3162   41.2629 N   0  0  0  0  0  0
   -6.4316   -8.4903   40.4966 N   0  0  0  0  0  0
   -5.8491  -10.6318   38.7599 N   0  0  0  0  0  0
   -5.8477   -4.1094   42.0254 N   0  0  0  0  0  0
   -6.5319  -12.6970   37.9425 O   0  0  0  0  0  0
   -4.5662  -13.8041   36.1508 O   0  0  0  0  0  0
   -3.5377  -11.3410   37.2470 O   0  0  0  0  0  0
   -8.4478   -1.3779   38.6268 O   0  0  0  0  0  0
   -9.4744   -3.2374   36.8341 O   0  0  0  0  0  0
   -4.0015  -11.9830   32.0646 H   0  0  0  0  0  0
   -3.0438   -9.8977   33.0052 H   0  0  0  0  0  0
   -4.7252  -13.8080   33.5706 H   0  0  0  0  0  0
   -2.8222   -9.6258   35.4546 H   0  0  0  0  0  0
   -7.0327   -2.3970   40.5489 H   0  0  0  0  0  0
   -8.8604   -5.7143   37.3556 H   0  0  0  0  0  0
   -4.9906   -9.8072   41.2698 H   0  0  0  0  0  0
   -4.3446   -8.2632   40.6873 H   0  0  0  0  0  0
   -8.4455   -8.9707   40.2224 H   0  0  0  0  0  0
   -7.5016  -10.2570   40.9826 H   0  0  0  0  0  0
   -4.7799   -8.9110   38.3513 H   0  0  0  0  0  0
   -3.8284  -10.1741   39.1425 H   0  0  0  0  0  0
   -7.8909  -10.9583   38.6884 H   0  0  0  0  0  0
   -7.3967   -9.3823   38.0629 H   0  0  0  0  0  0
   -2.9764  -14.0189   37.4340 H   0  0  0  0  0  0
   -4.5476  -14.4842   38.1007 H   0  0  0  0  0  0
   -3.7071  -12.2802   39.0847 H   0  0  0  0  0  0
   -7.8347    0.4103   37.7915 H   0  0  0  0  0  0
   -7.4748   -1.0584   36.8314 H   0  0  0  0  0  0
   -6.5317   -0.6952   38.3009 H   0  0  0  0  0  0
  -10.5525   -3.8015   35.1643 H   0  0  0  0  0  0
  -10.5757   -4.9593   36.5306 H   0  0  0  0  0  0
   -9.1117   -4.7870   35.5270 H   0  0  0  0  0  0
   -5.9819   -3.1305   41.8941 H   0  0  0  0  0  0
   -5.2611   -4.4695   42.7463 H   0  0  0  0  0  0
  1  2  2  0  0  0
  1  3  1  0  0  0
  1 34  1  0  0  0
  2  4  1  0  0  0
  2 35  1  0  0  0
  3  9  2  0  0  0
  3 36  1  0  0  0
  4 10  2  0  0  0
  4 37  1  0  0  0
  5  7  2  0  0  0
  5 11  1  0  0  0
  5 38  1  0  0  0
  6  8  2  0  0  0
  6 12  1  0  0  0
  6 39  1  0  0  0
  7  8  1  0  0  0
  7 13  1  0  0  0
  8 24  1  0  0  0
  9 10  1  0  0  0
  9 30  1  0  0  0
 10 31  1  0  0  0
 11 12  2  0  0  0
 11 32  1  0  0  0
 12 33  1  0  0  0
 13 25  2  0  0  0
 13 28  1  0  0  0
 14 24  2  0  0  0
 14 25  1  0  0  0
 14 26  1  0  0  0
 15 21  1  0  0  0
 15 27  1  0  0  0
 15 29  2  0  0  0
 16 18  1  0  0  0
 16 26  1  0  0  0
 16 40  1  0  0  0
 16 41  1  0  0  0
 17 19  1  0  0  0
 17 26  1  0  0  0
 17 42  1  0  0  0
 17 43  1  0  0  0
 18 27  1  0  0  0
 18 44  1  0  0  0
 18 45  1  0  0  0
 19 27  1  0  0  0
 19 46  1  0  0  0
 19 47  1  0  0  0
 20 21  1  0  0  0
 20 30  1  0  0  0
 20 48  1  0  0  0
 20 49  1  0  0  0
 21 31  1  0  0  0
 21 50  1  0  0  0
 22 32  1  0  0  0
 22 51  1  0  0  0
 22 52  1  0  0  0
 22 53  1  0  0  0
 23 33  1  0  0  0
 23 54  1  0  0  0
 23 55  1  0  0  0
 23 56  1  0  0  0
 28 57  1  0  0  0
 28 58  1  0  0  0
M  END
> <EON_Query>
60c

> <EON_ET_pb>
0.169

> <EON_ET_coul>
0.153

> <EON_ET_combo>
0.675

> <EON_ShapeTanimoto>
0.506

> <ROCS_ShapeQuery>
60c

> <ROCS_TanimotoCombo>
0.781

> <ROCS_ShapeTanimoto>
0.58

> <ROCS_ColorTanimoto>
0.201

> <ROCS_RefTversky>
0.793

> <ROCS_RefColorTversky>
0.394

> <ROCS_RefTverskyCombo>
1.187

> <ROCS_FitTversky>
0.684

> <ROCS_FitColorTversky>
0.291

> <ROCS_FitTverskyCombo>
0.975

> <ROCS_ColorScore>
-4.021

> <ROCS_Overlap>
1050.94

> <ROCS_Rank>
797

> <EON_Rank>
212

> <i_qp_#stars>
0

> <i_qp_#amine>
0

> <i_qp_#amidine>
0

> <i_qp_#acid>
0

> <i_qp_#amide>
1

> <i_qp_#rotor>
4

> <i_qp_#rtvFG>
0

> <i_qp_CNS>
-1

> <r_qp_mol_MW>
451.481

> <r_qp_dipole>
7.31307

> <r_qp_SASA>
717.697

> <r_qp_FOSA>
375.496

> <r_qp_FISA>
99.7224

> <r_qp_PISA>
242.478

> <r_qp_WPSA>
0

> <r_qp_volume>
1321.81

> <r_qp_donorHB>
2

> <r_qp_accptHB>
9

> <r_qp_dip^2/V>
0.0404605

> <r_qp_ACxDN^.5/SA>
0.0177344

> <r_qp_glob>
0.81159

> <r_qp_QPpolrz>
46.4921

> <r_qp_QPlogPC16>
13.3787

> <r_qp_QPlogPoct>
23.63

> <r_qp_QPlogPw>
16.4848

> <r_qp_QPlogPo/w>
2.69064

> <r_qp_QPlogS>
-4.6189

> <r_qp_CIQPlogS>
-5.2949

> <r_qp_QPlogHERG>
-4.36264

> <r_qp_QPPCaco>
719.004

> <r_qp_QPlogBB>
-0.686925

> <r_qp_QPPMDCK>
560.59

> <r_qp_QPlogKp>
-2.11917

> <r_qp_IP(eV)>
8.39634

> <r_qp_EA(eV)>
0.934115

> <i_qp_#metab>
3

> <r_qp_QPlogKhsa>
-0.0441326

> <i_qp_HumanOralAbsorption>
3

> <r_qp_PercentHumanOralAbsorption>
93.83

> <r_qp_SAfluorine>
0

> <r_qp_SAamideO>
24.3092

> <r_qp_PSA>
103.941

> <i_qp_#NandO>
10

> <i_qp_RuleOfFive>
0

> <i_qp_RuleOfThree>
0

> <i_qp_#ringatoms>
26

> <i_qp_#in34>
0

> <i_qp_#in56>
26

> <i_qp_#noncon>
6

> <i_qp_#nonHatm>
33

> <r_qp_Jm>
0.0825233

> <stars>
0

> <logP>
2.69064

> <Caco>
719.004

> <MDCK>
560.59

> <HumanOralAbsorption>
3

> <PercentHumanOralAbsorption>
93.83

> <RuleOfFive>
0

> <base>
fda.sdf

$$$$
Doxazosin mesylate.cdx_246
                    3D
 Schrodinger Suite 2022-3.
 58 62  0  0  1  0            999 V2000
   -3.8972  -11.8706   33.1396 C   0  0  0  0  0  0
   -3.3670  -10.6942   33.6690 C   0  0  0  0  0  0
   -4.2989  -12.9005   33.9902 C   0  0  0  0  0  0
   -3.2465  -10.5417   35.0503 C   0  0  0  0  0  0
   -7.4253   -3.1395   39.8581 C   0  0  0  0  0  0
   -8.4500   -5.0000   38.0679 C   0  0  0  0  0  0
   -7.1653   -4.5103   40.0294 C   0  0  0  0  0  0
   -7.6775   -5.4608   39.1312 C   0  0  0  0  0  0
   -4.1642  -12.7539   35.3713 C   0  0  0  0  0  0
   -3.6567  -11.5680   35.9025 C   0  0  0  0  0  0
   -8.2003   -2.7069   38.7865 C   0  0  0  0  0  0
   -8.7131   -3.6385   37.8907 C   0  0  0  0  0  0
   -6.3983   -5.0086   41.0788 C   0  0  0  0  0  0
   -6.6775   -7.1306   40.3427 C   0  0  0  0  0  0
   -5.6314  -11.9090   38.2428 C   0  0  0  0  0  0
   -5.0761   -9.0479   40.4898 C   0  0  0  0  0  0
   -7.4827   -9.4775   40.2237 C   0  0  0  0  0  0
   -4.7906   -9.6751   39.1252 C   0  0  0  0  0  0
   -7.2190  -10.1118   38.8554 C   0  0  0  0  0  0
   -4.0396  -13.7225   37.4774 C   0  0  0  0  0  0
   -4.1846  -12.3278   38.0526 C   0  0  1  0  0  0
   -7.5195   -0.6350   37.8381 C   0  0  0  0  0  0
   -9.9613   -4.2561   35.9630 C   0  0  0  0  0  0
   -7.4348   -6.7742   39.2855 N   0  0  0  0  0  0
   -6.1361   -6.3162   41.2629 N   0  0  0  0  0  0
   -6.4316   -8.4903   40.4966 N   0  0  0  0  0  0
   -5.8491  -10.6318   38.7599 N   0  0  0  0  0  0
   -5.8477   -4.1094   42.0254 N   0  0  0  0  0  0
   -6.5319  -12.6970   37.9425 O   0  0  0  0  0  0
   -4.5662  -13.8041   36.1508 O   0  0  0  0  0  0
   -3.5377  -11.3410   37.2470 O   0  0  0  0  0  0
   -8.4478   -1.3779   38.6268 O   0  0  0  0  0  0
   -9.4744   -3.2374   36.8341 O   0  0  0  0  0  0
   -4.0015  -11.9830   32.0646 H   0  0  0  0  0  0
   -3.0438   -9.8977   33.0052 H   0  0  0  0  0  0
   -4.7252  -13.8080   33.5706 H   0  0  0  0  0  0
   -2.8222   -9.6258   35.4546 H   0  0  0  0  0  0
   -7.0327   -2.3970   40.5489 H   0  0  0  0  0  0
   -8.8604   -5.7143   37.3556 H   0  0  0  0  0  0
   -4.9906   -9.8072   41.2698 H   0  0  0  0  0  0
   -4.3446   -8.2632   40.6873 H   0  0  0  0  0  0
   -8.4455   -8.9707   40.2224 H   0  0  0  0  0  0
   -7.5016  -10.2570   40.9826 H   0  0  0  0  0  0
   -4.7799   -8.9110   38.3513 H   0  0  0  0  0  0
   -3.8284  -10.1741   39.1425 H   0  0  0  0  0  0
   -7.8909  -10.9583   38.6884 H   0  0  0  0  0  0
   -7.3967   -9.3823   38.0629 H   0  0  0  0  0  0
   -2.9764  -14.0189   37.4340 H   0  0  0  0  0  0
   -4.5476  -14.4842   38.1007 H   0  0  0  0  0  0
   -3.7071  -12.2802   39.0847 H   0  0  0  0  0  0
   -7.8347    0.4103   37.7915 H   0  0  0  0  0  0
   -7.4748   -1.0584   36.8314 H   0  0  0  0  0  0
   -6.5317   -0.6952   38.3009 H   0  0  0  0  0  0
  -10.5525   -3.8015   35.1643 H   0  0  0  0  0  0
  -10.5757   -4.9593   36.5306 H   0  0  0  0  0  0
   -9.1117   -4.7870   35.5270 H   0  0  0  0  0  0
   -5.9819   -3.1305   41.8941 H   0  0  0  0  0  0
   -5.2611   -4.4695   42.7463 H   0  0  0  0  0  0
  1  2  2  0  0  0
  1  3  1  0  0  0
  1 34  1  0  0  0
  2  4  1  0  0  0
  2 35  1  0  0  0
  3  9  2  0  0  0
  3 36  1  0  0  0
  4 10  2  0  0  0
  4 37  1  0  0  0
  5  7  2  0  0  0
  5 11  1  0  0  0
  5 38  1  0  0  0
  6  8  2  0  0  0
  6 12  1  0  0  0
  6 39  1  0  0  0
  7  8  1  0  0  0
  7 13  1  0  0  0
  8 24  1  0  0  0
  9 10  1  0  0  0
  9 30  1  0  0  0
 10 31  1  0  0  0
 11 12  2  0  0  0
 11 32  1  0  0  0
 12 33  1  0  0  0
 13 25  2  0  0  0
 13 28  1  0  0  0
 14 24  2  0  0  0
 14 25  1  0  0  0
 14 26  1  0  0  0
 15 21  1  0  0  0
 15 27  1  0  0  0
 15 29  2  0  0  0
 16 18  1  0  0  0
 16 26  1  0  0  0
 16 40  1  0  0  0
 16 41  1  0  0  0
 17 19  1  0  0  0
 17 26  1  0  0  0
 17 42  1  0  0  0
 17 43  1  0  0  0
 18 27  1  0  0  0
 18 44  1  0  0  0
 18 45  1  0  0  0
 19 27  1  0  0  0
 19 46  1  0  0  0
 19 47  1  0  0  0
 20 21  1  0  0  0
 20 30  1  0  0  0
 20 48  1  0  0  0
 20 49  1  0  0  0
 21 31  1  0  0  0
 21 50  1  0  0  0
 22 32  1  0  0  0
 22 51  1  0  0  0
 22 52  1  0  0  0
 22 53  1  0  0  0
 23 33  1  0  0  0
 23 54  1  0  0  0
 23 55  1  0  0  0
 23 56  1  0  0  0
 28 57  1  0  0  0
 28 58  1  0  0  0
M  END
> <EON_Query>
60c

> <EON_ET_pb>
0.169

> <EON_ET_coul>
0.153

> <EON_ET_combo>
0.675

> <EON_ShapeTanimoto>
0.506

> <ROCS_ShapeQuery>
60c

> <ROCS_TanimotoCombo>
0.781

> <ROCS_ShapeTanimoto>
0.58

> <ROCS_ColorTanimoto>
0.201

> <ROCS_RefTversky>
0.793

> <ROCS_RefColorTversky>
0.394

> <ROCS_RefTverskyCombo>
1.187

> <ROCS_FitTversky>
0.684

> <ROCS_FitColorTversky>
0.291

> <ROCS_FitTverskyCombo>
0.975

> <ROCS_ColorScore>
-4.021

> <ROCS_Overlap>
1050.94

> <ROCS_Rank>
796

> <EON_Rank>
213

> <i_qp_#stars>
0

> <i_qp_#amine>
0

> <i_qp_#amidine>
0

> <i_qp_#acid>
0

> <i_qp_#amide>
1

> <i_qp_#rotor>
4

> <i_qp_#rtvFG>
0

> <i_qp_CNS>
-1

> <r_qp_mol_MW>
451.481

> <r_qp_dipole>
7.31307

> <r_qp_SASA>
717.697

> <r_qp_FOSA>
375.496

> <r_qp_FISA>
99.7224

> <r_qp_PISA>
242.478

> <r_qp_WPSA>
0

> <r_qp_volume>
1321.81

> <r_qp_donorHB>
2

> <r_qp_accptHB>
9

> <r_qp_dip^2/V>
0.0404605

> <r_qp_ACxDN^.5/SA>
0.0177344

> <r_qp_glob>
0.81159

> <r_qp_QPpolrz>
46.4921

> <r_qp_QPlogPC16>
13.3787

> <r_qp_QPlogPoct>
23.63

> <r_qp_QPlogPw>
16.4848

> <r_qp_QPlogPo/w>
2.69064

> <r_qp_QPlogS>
-4.6189

> <r_qp_CIQPlogS>
-5.2949

> <r_qp_QPlogHERG>
-4.36264

> <r_qp_QPPCaco>
719.004

> <r_qp_QPlogBB>
-0.686925

> <r_qp_QPPMDCK>
560.59

> <r_qp_QPlogKp>
-2.11917

> <r_qp_IP(eV)>
8.39634

> <r_qp_EA(eV)>
0.934115

> <i_qp_#metab>
3

> <r_qp_QPlogKhsa>
-0.0441326

> <i_qp_HumanOralAbsorption>
3

> <r_qp_PercentHumanOralAbsorption>
93.83

> <r_qp_SAfluorine>
0

> <r_qp_SAamideO>
24.3092

> <r_qp_PSA>
103.941

> <i_qp_#NandO>
10

> <i_qp_RuleOfFive>
0

> <i_qp_RuleOfThree>
0

> <i_qp_#ringatoms>
26

> <i_qp_#in34>
0

> <i_qp_#in56>
26

> <i_qp_#noncon>
6

> <i_qp_#nonHatm>
33

> <r_qp_Jm>
0.0825233

> <stars>
0

> <logP>
2.69064

> <Caco>
719.004

> <MDCK>
560.59

> <HumanOralAbsorption>
3

> <PercentHumanOralAbsorption>
93.83

> <RuleOfFive>
0

> <base>
fda.sdf

$$$$
Molecule_146
                    3D
 Schrodinger Suite 2022-3.
 43 46  0  0  1  0            999 V2000
  -10.8915   -4.6515   36.3534 C   0  0  0  0  0  0
  -10.4642   -5.9823   36.2073 C   0  0  0  0  0  0
   -4.1864  -10.0237   35.0792 C   0  0  0  0  0  0
   -6.8584   -9.9076   42.1968 C   0  0  0  0  0  0
  -10.1328   -3.7398   37.0885 C   0  0  0  0  0  0
   -6.8497   -8.5979   41.7301 C   0  0  0  0  0  0
   -9.2728   -6.4178   36.7956 C   0  0  0  0  0  0
   -4.6812  -11.3265   35.0229 C   0  0  0  0  0  0
   -4.3323   -9.2719   36.2451 C   0  0  0  0  0  0
   -5.4682  -11.1259   37.2983 C   0  0  0  0  0  0
   -6.2770  -10.8829   41.4027 C   0  0  0  0  0  0
   -8.9605   -4.2016   37.6580 C   0  0  0  0  0  0
   -6.2678   -8.3075   40.5011 C   0  0  0  0  0  0
   -8.5305   -5.5066   37.5256 C   0  0  0  0  0  0
   -5.3222  -11.8776   36.1324 C   0  0  0  0  0  0
   -4.9733   -9.8231   37.3547 C   0  0  0  0  0  0
   -5.7126   -9.3544   39.7831 C   0  0  0  0  0  0
   -7.9959   -3.4664   38.4598 C   0  0  0  0  0  0
   -6.2682   -6.9065   40.0094 C   0  0  0  0  0  0
   -7.2477   -5.6842   38.2424 C   0  0  1  0  0  0
   -5.8518  -13.2704   36.0716 C   0  0  0  0  0  0
   -5.7023  -10.6392   40.2036 N   0  0  0  0  0  0
   -5.1197   -9.0668   38.5279 N   0  0  0  0  0  0
   -8.0569   -2.2956   38.7782 O   0  0  0  0  0  0
   -5.3727   -6.1120   40.2501 O   0  0  0  0  0  0
   -7.0055   -4.3571   38.7795 O   0  0  0  0  0  0
   -7.3851   -6.6489   39.2697 O   0  0  0  0  0  0
   -5.6388  -13.8853   34.8706 F   0  0  0  0  0  0
   -5.3014  -14.1059   37.0016 F   0  0  0  0  0  0
   -7.1997  -13.3293   36.2788 F   0  0  0  0  0  0
  -11.8200   -4.3315   35.8884 H   0  0  0  0  0  0
  -11.0668   -6.6784   35.6301 H   0  0  0  0  0  0
   -3.6871   -9.5945   34.2151 H   0  0  0  0  0  0
   -7.3079  -10.1573   43.1511 H   0  0  0  0  0  0
  -10.4574   -2.7120   37.2026 H   0  0  0  0  0  0
   -7.2993   -7.8128   42.3324 H   0  0  0  0  0  0
   -8.9450   -7.4452   36.6796 H   0  0  0  0  0  0
   -4.5630  -11.9051   34.1102 H   0  0  0  0  0  0
   -3.9427   -8.2576   36.2782 H   0  0  0  0  0  0
   -5.9680  -11.5574   38.1627 H   0  0  0  0  0  0
   -6.2580  -11.9199   41.7216 H   0  0  0  0  0  0
   -6.4324   -5.9503   37.5615 H   0  0  0  0  0  0
   -4.7294   -8.1337   38.4747 H   0  0  0  0  0  0
  1  2  2  0  0  0
  1  5  1  0  0  0
  1 31  1  0  0  0
  2  7  1  0  0  0
  2 32  1  0  0  0
  3  8  2  0  0  0
  3  9  1  0  0  0
  3 33  1  0  0  0
  4  6  2  0  0  0
  4 11  1  0  0  0
  4 34  1  0  0  0
  5 12  2  0  0  0
  5 35  1  0  0  0
  6 13  1  0  0  0
  6 36  1  0  0  0
  7 14  2  0  0  0
  7 37  1  0  0  0
  8 15  1  0  0  0
  8 38  1  0  0  0
  9 16  2  0  0  0
  9 39  1  0  0  0
 10 15  2  0  0  0
 10 16  1  0  0  0
 10 40  1  0  0  0
 11 22  2  0  0  0
 11 41  1  0  0  0
 12 14  1  0  0  0
 12 18  1  0  0  0
 13 17  2  0  0  0
 13 19  1  0  0  0
 14 20  1  0  0  0
 15 21  1  0  0  0
 16 23  1  0  0  0
 17 22  1  0  0  0
 17 23  1  0  0  0
 18 24  2  0  0  0
 18 26  1  0  0  0
 19 25  2  0  0  0
 19 27  1  0  0  0
 20 26  1  0  0  0
 20 27  1  0  0  0
 20 42  1  0  0  0
 21 28  1  0  0  0
 21 29  1  0  0  0
 21 30  1  0  0  0
 23 43  1  0  0  0
M  END
> <EON_Query>
60c

> <EON_ET_pb>
0.082

> <EON_ET_coul>
0.105

> <EON_ET_combo>
0.674

> <EON_ShapeTanimoto>
0.593

> <ROCS_ShapeQuery>
60c

> <ROCS_TanimotoCombo>
0.957

> <ROCS_ShapeTanimoto>
0.737

> <ROCS_ColorTanimoto>
0.221

> <ROCS_RefTversky>
0.878

> <ROCS_RefColorTversky>
0.329

> <ROCS_RefTverskyCombo>
1.207

> <ROCS_FitTversky>
0.821

> <ROCS_FitColorTversky>
0.401

> <ROCS_FitTverskyCombo>
1.222

> <ROCS_ColorScore>
-3.259

> <ROCS_Overlap>
1157.18

> <ROCS_Rank>
26

> <EON_Rank>
214

> <i_qp_#stars>
0

> <i_qp_#amine>
0

> <i_qp_#amidine>
0

> <i_qp_#acid>
0

> <i_qp_#amide>
0

> <i_qp_#rotor>
4

> <i_qp_#rtvFG>
2

> <i_qp_CNS>
0

> <r_qp_mol_MW>
414.34

> <r_qp_dipole>
3.86428

> <r_qp_SASA>
654.217

> <r_qp_FOSA>
7.52616

> <r_qp_FISA>
118.876

> <r_qp_PISA>
409.728

> <r_qp_WPSA>
118.087

> <r_qp_volume>
1164.7

> <r_qp_donorHB>
0

> <r_qp_accptHB>
5.5

> <r_qp_dip^2/V>
0.012821

> <r_qp_ACxDN^.5/SA>
0

> <r_qp_glob>
0.818312

> <r_qp_QPpolrz>
41.8018

> <r_qp_QPlogPC16>
11.9951

> <r_qp_QPlogPoct>
17.7403

> <r_qp_QPlogPw>
9.46559

> <r_qp_QPlogPo/w>
4.32266

> <r_qp_QPlogS>
-5.59836

> <r_qp_CIQPlogS>
-6.51496

> <r_qp_QPlogHERG>
-6.42588

> <r_qp_QPPCaco>
738.93

> <r_qp_QPlogBB>
-0.571316

> <r_qp_QPPMDCK>
1582

> <r_qp_QPlogKp>
-1.88299

> <r_qp_IP(eV)>
8.79912

> <r_qp_EA(eV)>
1.01913

> <i_qp_#metab>
3

> <r_qp_QPlogKhsa>
0.358033

> <i_qp_HumanOralAbsorption>
3

> <r_qp_PercentHumanOralAbsorption>
100

> <r_qp_SAfluorine>
118.087

> <r_qp_SAamideO>
0

> <r_qp_PSA>
92.4472

> <i_qp_#NandO>
6

> <i_qp_RuleOfFive>
0

> <i_qp_RuleOfThree>
0

> <i_qp_#ringatoms>
21

> <i_qp_#in34>
0

> <i_qp_#in56>
21

> <i_qp_#noncon>
1

> <i_qp_#nonHatm>
30

> <r_qp_Jm>
0.0136778

> <stars>
0

> <logP>
4.32266

> <Caco>
738.93

> <MDCK>
1582.0

> <HumanOralAbsorption>
3

> <PercentHumanOralAbsorption>
100.0

> <RuleOfFive>
0

> <base>
fda.sdf

$$$$
S5167 Benzyl cinnamate.cdx_43
                    3D
 Schrodinger Suite 2022-3.
 32 33  0  0  1  0            999 V2000
   -4.3793  -11.4267   35.2173 C   0  0  0  0  0  0
   -8.6157   -4.2931   37.4567 C   0  0  0  0  0  0
   -4.8048  -12.0485   36.3911 C   0  0  0  0  0  0
   -4.4187  -10.0364   35.1105 C   0  0  0  0  0  0
   -7.4375   -3.8237   38.0371 C   0  0  0  0  0  0
   -9.2553   -5.4142   37.9855 C   0  0  0  0  0  0
   -5.2698  -11.2801   37.4583 C   0  0  0  0  0  0
   -4.8837   -9.2680   36.1778 C   0  0  0  0  0  0
   -6.8986   -4.4756   39.1465 C   0  0  0  0  0  0
   -8.7167   -6.0660   39.0949 C   0  0  0  0  0  0
   -5.3092   -9.8898   37.3516 C   0  0  0  0  0  0
   -7.5383   -5.5967   39.6754 C   0  0  0  0  0  0
   -5.7940   -9.0880   38.4643 C   0  0  0  0  0  0
   -5.8692   -9.5007   39.7490 C   0  0  0  0  0  0
   -6.3724   -8.5841   40.7971 C   0  0  0  0  0  0
   -6.9592   -6.2985   40.8685 C   0  0  0  0  0  0
   -6.9612   -8.9230   41.8115 O   0  0  0  0  0  0
   -6.0570   -7.3155   40.4201 O   0  0  0  0  0  0
   -4.0162  -12.0249   34.3868 H   0  0  0  0  0  0
   -9.0358   -3.7846   36.5938 H   0  0  0  0  0  0
   -4.7730  -13.1310   36.4748 H   0  0  0  0  0  0
   -4.0865   -9.5521   34.1971 H   0  0  0  0  0  0
   -6.9398   -2.9503   37.6261 H   0  0  0  0  0  0
  -10.1734   -5.7791   37.5347 H   0  0  0  0  0  0
   -5.5980  -11.7792   38.3670 H   0  0  0  0  0  0
   -4.9083   -8.1854   36.0794 H   0  0  0  0  0  0
   -5.9801   -4.1030   39.5920 H   0  0  0  0  0  0
   -9.2218   -6.9387   39.5002 H   0  0  0  0  0  0
   -6.1000   -8.0636   38.2235 H   0  0  0  0  0  0
   -5.5590  -10.4951   40.0510 H   0  0  0  0  0  0
   -6.4157   -5.5966   41.5102 H   0  0  0  0  0  0
   -7.7506   -6.7597   41.4690 H   0  0  0  0  0  0
  1  3  2  0  0  0
  1  4  1  0  0  0
  1 19  1  0  0  0
  2  5  2  0  0  0
  2  6  1  0  0  0
  2 20  1  0  0  0
  3  7  1  0  0  0
  3 21  1  0  0  0
  4  8  2  0  0  0
  4 22  1  0  0  0
  5  9  1  0  0  0
  5 23  1  0  0  0
  6 10  2  0  0  0
  6 24  1  0  0  0
  7 11  2  0  0  0
  7 25  1  0  0  0
  8 11  1  0  0  0
  8 26  1  0  0  0
  9 12  2  0  0  0
  9 27  1  0  0  0
 10 12  1  0  0  0
 10 28  1  0  0  0
 11 13  1  0  0  0
 12 16  1  0  0  0
 13 14  2  0  0  0
 13 29  1  0  0  0
 14 15  1  0  0  0
 14 30  1  0  0  0
 15 17  2  0  0  0
 15 18  1  0  0  0
 16 18  1  0  0  0
 16 31  1  0  0  0
 16 32  1  0  0  0
M  END
> <EON_Query>
60c

> <EON_ET_pb>
0.09

> <EON_ET_coul>
0.049

> <EON_ET_combo>
0.674

> <EON_ShapeTanimoto>
0.584

> <ROCS_ShapeQuery>
60c

> <ROCS_TanimotoCombo>
0.894

> <ROCS_ShapeTanimoto>
0.712

> <ROCS_ColorTanimoto>
0.182

> <ROCS_RefTversky>
0.681

> <ROCS_RefColorTversky>
0.207

> <ROCS_RefTverskyCombo>
0.888

> <ROCS_FitTversky>
1.069

> <ROCS_FitColorTversky>
0.597

> <ROCS_FitTverskyCombo>
1.666

> <ROCS_ColorScore>
-1.999

> <ROCS_Overlap>
876.263

> <ROCS_Rank>
105

> <EON_Rank>
217

> <i_qp_#stars>
0

> <i_qp_#amine>
0

> <i_qp_#amidine>
0

> <i_qp_#acid>
0

> <i_qp_#amide>
0

> <i_qp_#rotor>
5

> <i_qp_#rtvFG>
1

> <i_qp_CNS>
0

> <r_qp_mol_MW>
238.285

> <r_qp_dipole>
4.12809

> <r_qp_SASA>
513.573

> <r_qp_FOSA>
49.2435

> <r_qp_FISA>
60.6353

> <r_qp_PISA>
403.694

> <r_qp_WPSA>
0

> <r_qp_volume>
868.174

> <r_qp_donorHB>
0

> <r_qp_accptHB>
2

> <r_qp_dip^2/V>
0.0196287

> <r_qp_ACxDN^.5/SA>
0

> <r_qp_glob>
0.856974

> <r_qp_QPpolrz>
29.2351

> <r_qp_QPlogPC16>
9.51099

> <r_qp_QPlogPoct>
10.6841

> <r_qp_QPlogPw>
4.98047

> <r_qp_QPlogPo/w>
4.03814

> <r_qp_QPlogS>
-4.08821

> <r_qp_CIQPlogS>
-3.92485

> <r_qp_QPlogHERG>
-5.77153

> <r_qp_QPPCaco>
2635.7

> <r_qp_QPlogBB>
-0.288274

> <r_qp_QPPMDCK>
1410.22

> <r_qp_QPlogKp>
-0.734865

> <r_qp_IP(eV)>
9.43472

> <r_qp_EA(eV)>
0.705528

> <i_qp_#metab>
1

> <r_qp_QPlogKhsa>
0.391009

> <i_qp_HumanOralAbsorption>
3

> <r_qp_PercentHumanOralAbsorption>
100

> <r_qp_SAfluorine>
0

> <r_qp_SAamideO>
0

> <r_qp_PSA>
35.9835

> <i_qp_#NandO>
2

> <i_qp_RuleOfFive>
0

> <i_qp_RuleOfThree>
0

> <i_qp_#ringatoms>
12

> <i_qp_#in34>
0

> <i_qp_#in56>
12

> <i_qp_#noncon>
0

> <i_qp_#nonHatm>
18

> <r_qp_Jm>
3.58118

> <stars>
0

> <logP>
4.03814

> <Caco>
2635.7

> <MDCK>
1410.22

> <HumanOralAbsorption>
3

> <PercentHumanOralAbsorption>
100.0

> <RuleOfFive>
0

> <base>
fda.sdf

$$$$
S9053 Irisflorentin.cdx_11
                    3D
 Schrodinger Suite 2022-3.
 46 49  0  0  1  0            999 V2000
   -6.3790   -5.4886   38.6533 C   0  0  0  0  0  0
   -7.9804   -5.3284   36.8513 C   0  0  0  0  0  0
   -5.4499  -11.0263   35.2669 C   0  0  0  0  0  0
   -6.9726   -6.0301   37.5131 C   0  0  0  0  0  0
   -5.6666   -9.6905   37.2921 C   0  0  0  0  0  0
   -5.7896   -9.8268   35.8987 C   0  0  0  0  0  0
   -4.9947  -12.0585   36.0614 C   0  0  0  0  0  0
   -4.8743  -11.9253   37.4260 C   0  0  0  0  0  0
   -6.7934   -4.2457   39.1320 C   0  0  0  0  0  0
   -8.3947   -4.0855   37.3300 C   0  0  0  0  0  0
   -5.2017  -10.7525   38.0765 C   0  0  0  0  0  0
   -7.8012   -3.5442   38.4704 C   0  0  0  0  0  0
   -6.5972   -7.6284   35.7000 C   0  0  0  0  0  0
   -6.5356   -7.3423   37.0091 C   0  0  0  0  0  0
   -6.0317   -8.4067   37.9195 C   0  0  0  0  0  0
   -4.2475  -13.9211   36.8709 C   0  0  0  0  0  0
   -6.7992   -4.0526   41.5022 C   0  0  0  0  0  0
   -8.9766   -2.5188   35.6380 C   0  0  0  0  0  0
   -6.1882  -11.0581   40.2188 C   0  0  0  0  0  0
   -7.2211   -1.3008   39.0062 C   0  0  0  0  0  0
   -5.9112   -8.2341   39.1255 O   0  0  0  0  0  0
   -6.2403   -8.8089   35.0958 O   0  0  0  0  0  0
   -4.6192  -13.2927   35.6273 O   0  0  0  0  0  0
   -4.4081  -13.0601   38.0164 O   0  0  0  0  0  0
   -6.2056   -3.7283   40.2465 O   0  0  0  0  0  0
   -9.3804   -3.4109   36.6750 O   0  0  0  0  0  0
   -5.0629  -10.6790   39.4246 O   0  0  0  0  0  0
   -8.2063   -2.3293   38.9384 O   0  0  0  0  0  0
   -5.5925   -6.0292   39.1753 H   0  0  0  0  0  0
   -8.4485   -5.7438   35.9615 H   0  0  0  0  0  0
   -5.5404  -11.1433   34.1925 H   0  0  0  0  0  0
   -6.9449   -6.9307   34.9480 H   0  0  0  0  0  0
   -4.8686  -14.8131   37.0129 H   0  0  0  0  0  0
   -3.1976  -14.2296   36.8083 H   0  0  0  0  0  0
   -6.2334   -3.5769   42.3072 H   0  0  0  0  0  0
   -6.8016   -5.1373   41.6359 H   0  0  0  0  0  0
   -7.8274   -3.6835   41.5153 H   0  0  0  0  0  0
   -9.8587   -2.0466   35.1987 H   0  0  0  0  0  0
   -8.4274   -3.0732   34.8728 H   0  0  0  0  0  0
   -8.3281   -1.7494   36.0635 H   0  0  0  0  0  0
   -5.9404  -10.9518   41.2777 H   0  0  0  0  0  0
   -6.4579  -12.0943   39.9990 H   0  0  0  0  0  0
   -7.0302  -10.4054   39.9766 H   0  0  0  0  0  0
   -7.6747   -0.3859   39.3953 H   0  0  0  0  0  0
   -6.8114   -1.1214   38.0090 H   0  0  0  0  0  0
   -6.4191   -1.6206   39.6757 H   0  0  0  0  0  0
  1  4  2  0  0  0
  1  9  1  0  0  0
  1 29  1  0  0  0
  2  4  1  0  0  0
  2 10  2  0  0  0
  2 30  1  0  0  0
  3  6  2  0  0  0
  3  7  1  0  0  0
  3 31  1  0  0  0
  4 14  1  0  0  0
  5  6  1  0  0  0
  5 11  2  0  0  0
  5 15  1  0  0  0
  6 22  1  0  0  0
  7  8  2  0  0  0
  7 23  1  0  0  0
  8 11  1  0  0  0
  8 24  1  0  0  0
  9 12  2  0  0  0
  9 25  1  0  0  0
 10 12  1  0  0  0
 10 26  1  0  0  0
 11 27  1  0  0  0
 12 28  1  0  0  0
 13 14  2  0  0  0
 13 22  1  0  0  0
 13 32  1  0  0  0
 14 15  1  0  0  0
 15 21  2  0  0  0
 16 23  1  0  0  0
 16 24  1  0  0  0
 16 33  1  0  0  0
 16 34  1  0  0  0
 17 25  1  0  0  0
 17 35  1  0  0  0
 17 36  1  0  0  0
 17 37  1  0  0  0
 18 26  1  0  0  0
 18 38  1  0  0  0
 18 39  1  0  0  0
 18 40  1  0  0  0
 19 27  1  0  0  0
 19 41  1  0  0  0
 19 42  1  0  0  0
 19 43  1  0  0  0
 20 28  1  0  0  0
 20 44  1  0  0  0
 20 45  1  0  0  0
 20 46  1  0  0  0
M  END
> <EON_Query>
60c

> <EON_ET_pb>
0.176

> <EON_ET_coul>
0.191

> <EON_ET_combo>
0.674

> <EON_ShapeTanimoto>
0.498

> <ROCS_ShapeQuery>
60c

> <ROCS_TanimotoCombo>
0.763

> <ROCS_ShapeTanimoto>
0.485

> <ROCS_ColorTanimoto>
0.279

> <ROCS_RefTversky>
0.654

> <ROCS_RefColorTversky>
0.475

> <ROCS_RefTverskyCombo>
1.13

> <ROCS_FitTversky>
0.652

> <ROCS_FitColorTversky>
0.402

> <ROCS_FitTverskyCombo>
1.054

> <ROCS_ColorScore>
-4.804

> <ROCS_Overlap>
859.164

> <ROCS_Rank>
996

> <EON_Rank>
218

> <i_qp_#stars>
0

> <i_qp_#amine>
0

> <i_qp_#amidine>
0

> <i_qp_#acid>
0

> <i_qp_#amide>
0

> <i_qp_#rotor>
5

> <i_qp_#rtvFG>
1

> <i_qp_CNS>
1

> <r_qp_mol_MW>
386.357

> <r_qp_dipole>
3.62899

> <r_qp_SASA>
568.843

> <r_qp_FOSA>
384.991

> <r_qp_FISA>
18.348

> <r_qp_PISA>
165.504

> <r_qp_WPSA>
0

> <r_qp_volume>
1055.22

> <r_qp_donorHB>
0

> <r_qp_accptHB>
7

> <r_qp_dip^2/V>
0.0124804

> <r_qp_ACxDN^.5/SA>
0

> <r_qp_glob>
0.881185

> <r_qp_QPpolrz>
34.4458

> <r_qp_QPlogPC16>
9.42361

> <r_qp_QPlogPoct>
14.6426

> <r_qp_QPlogPw>
8.13058

> <r_qp_QPlogPo/w>
2.83715

> <r_qp_QPlogS>
-2.51757

> <r_qp_CIQPlogS>
-5.10507

> <r_qp_QPlogHERG>
-4.24384

> <r_qp_QPPCaco>
6635.99

> <r_qp_QPlogBB>
0.104642

> <r_qp_QPPMDCK>
3825.9

> <r_qp_QPlogKp>
-0.794582

> <r_qp_IP(eV)>
8.95764

> <r_qp_EA(eV)>
0.847419

> <i_qp_#metab>
4

> <r_qp_QPlogKhsa>
-0.403508

> <i_qp_HumanOralAbsorption>
3

> <r_qp_PercentHumanOralAbsorption>
100

> <r_qp_SAfluorine>
0

> <r_qp_SAamideO>
0

> <r_qp_PSA>
78.243

> <i_qp_#NandO>
8

> <i_qp_RuleOfFive>
0

> <i_qp_RuleOfThree>
0

> <i_qp_#ringatoms>
19

> <i_qp_#in34>
0

> <i_qp_#in56>
19

> <i_qp_#noncon>
1

> <i_qp_#nonHatm>
28

> <r_qp_Jm>
188.294

> <stars>
0

> <logP>
2.83715

> <Caco>
6635.99

> <MDCK>
3825.9

> <HumanOralAbsorption>
3

> <PercentHumanOralAbsorption>
100.0

> <RuleOfFive>
0

> <base>
fda.sdf

$$$$
BindingDB_50176259_mol_1_2
                    3D
 Schrodinger Suite 2022-3.
 45 46  0  0  1  0            999 V2000
   -7.7561   -4.2244   39.0478 C   0  0  0  0  0  0
   -7.0093   -5.2518   39.6242 C   0  0  0  0  0  0
   -8.6639   -4.5096   38.0278 C   0  0  0  0  0  0
   -8.0775   -6.8496   38.1603 C   0  0  0  0  0  0
   -7.1699   -6.5643   39.1804 C   0  0  0  0  0  0
   -8.8245   -5.8222   37.5840 C   0  0  0  0  0  0
   -6.0588  -10.5463   40.6487 C   0  0  0  0  0  0
   -6.3713   -9.4592   41.6684 C   0  0  0  0  0  0
   -5.2781   -9.9949   39.4603 C   0  0  0  0  0  0
   -7.1133   -8.2891   41.0226 C   0  0  0  0  0  0
   -6.0075   -8.8161   38.7846 C   0  0  1  0  0  0
   -6.3484   -7.6936   39.8139 C   0  0  1  0  0  0
   -6.2253  -10.0395   36.1789 C   0  0  0  0  0  0
   -4.0284   -9.0677   35.5231 C   0  0  0  0  0  0
   -9.8247   -7.4637   36.1837 C   0  0  0  0  0  0
   -5.1491   -8.3123   37.6145 C   0  0  0  0  0  0
   -4.9336   -9.4316   36.6791 N   0  3  0  0  0  0
   -5.0994   -7.1877   40.3131 O   0  0  0  0  0  0
   -9.7106   -6.1005   36.5889 O   0  0  0  0  0  0
   -7.6314   -3.2026   39.3937 H   0  0  0  0  0  0
   -6.3043   -5.0197   40.4181 H   0  0  0  0  0  0
   -9.2425   -3.7049   37.5829 H   0  0  0  0  0  0
   -8.2047   -7.8719   37.8121 H   0  0  0  0  0  0
   -5.4831  -11.3459   41.1285 H   0  0  0  0  0  0
   -6.9946  -10.9960   40.2946 H   0  0  0  0  0  0
   -6.9846   -9.8791   42.4740 H   0  0  0  0  0  0
   -5.4426   -9.1068   42.1323 H   0  0  0  0  0  0
   -4.2793   -9.6856   39.7923 H   0  0  0  0  0  0
   -5.1273  -10.8006   38.7313 H   0  0  0  0  0  0
   -8.1088   -8.6308   40.7083 H   0  0  0  0  0  0
   -7.2661   -7.5162   41.7873 H   0  0  0  0  0  0
   -6.9477   -9.2025   38.3639 H   0  0  0  0  0  0
   -6.8387  -10.2825   37.0485 H   0  0  0  0  0  0
   -6.7186   -9.3007   35.5445 H   0  0  0  0  0  0
   -5.9742  -10.9382   35.6124 H   0  0  0  0  0  0
   -3.1155   -8.6356   35.9370 H   0  0  0  0  0  0
   -3.8129   -9.9820   34.9668 H   0  0  0  0  0  0
   -4.5572   -8.3443   34.8995 H   0  0  0  0  0  0
  -10.5648   -7.5462   35.3839 H   0  0  0  0  0  0
  -10.1262   -8.0747   37.0382 H   0  0  0  0  0  0
   -8.8549   -7.8078   35.8163 H   0  0  0  0  0  0
   -4.1786   -7.9785   37.9679 H   0  0  0  0  0  0
   -5.6616   -7.5201   37.0777 H   0  0  0  0  0  0
   -5.3176   -6.5148   40.9770 H   0  0  0  0  0  0
   -4.4629  -10.1503   37.1909 H   0  0  0  0  0  0
  1  2  2  0  0  0
  1  3  1  0  0  0
  1 20  1  0  0  0
  2  5  1  0  0  0
  2 21  1  0  0  0
  3  6  2  0  0  0
  3 22  1  0  0  0
  4  5  2  0  0  0
  4  6  1  0  0  0
  4 23  1  0  0  0
  5 12  1  0  0  0
  6 19  1  0  0  0
  7  8  1  0  0  0
  7  9  1  0  0  0
  7 24  1  0  0  0
  7 25  1  0  0  0
  8 10  1  0  0  0
  8 26  1  0  0  0
  8 27  1  0  0  0
  9 11  1  0  0  0
  9 28  1  0  0  0
  9 29  1  0  0  0
 10 12  1  0  0  0
 10 30  1  0  0  0
 10 31  1  0  0  0
 11 12  1  0  0  0
 11 16  1  0  0  0
 11 32  1  0  0  0
 12 18  1  0  0  0
 13 17  1  0  0  0
 13 33  1  0  0  0
 13 34  1  0  0  0
 13 35  1  0  0  0
 14 17  1  0  0  0
 14 36  1  0  0  0
 14 37  1  0  0  0
 14 38  1  0  0  0
 15 19  1  0  0  0
 15 39  1  0  0  0
 15 40  1  0  0  0
 15 41  1  0  0  0
 16 17  1  0  0  0
 16 42  1  0  0  0
 16 43  1  0  0  0
 17 45  1  0  0  0
 18 44  1  0  0  0
M  CHG  1  17   1
M  END
> <EON_Query>
60c

> <EON_ET_pb>
0.108

> <EON_ET_coul>
0.066

> <EON_ET_combo>
0.671

> <EON_ShapeTanimoto>
0.563

> <ROCS_ShapeQuery>
60c

> <ROCS_TanimotoCombo>
0.776

> <ROCS_ShapeTanimoto>
0.592

> <ROCS_ColorTanimoto>
0.184

> <ROCS_RefTversky>
0.615

> <ROCS_RefColorTversky>
0.269

> <ROCS_RefTverskyCombo>
0.883

> <ROCS_FitTversky>
0.94

> <ROCS_FitColorTversky>
0.37

> <ROCS_FitTverskyCombo>
1.311

> <ROCS_ColorScore>
-2.646

> <ROCS_Overlap>
791.874

> <ROCS_Rank>
853

> <EON_Rank>
226

> <i_qp_#stars>
0

> <i_qp_#amine>
1

> <i_qp_#amidine>
0

> <i_qp_#acid>
0

> <i_qp_#amide>
0

> <i_qp_#rotor>
4

> <i_qp_#rtvFG>
0

> <i_qp_CNS>
2

> <r_qp_mol_MW>
263.379

> <r_qp_dipole>
1.61012

> <r_qp_SASA>
512.495

> <r_qp_FOSA>
368.809

> <r_qp_FISA>
21.7778

> <r_qp_PISA>
121.909

> <r_qp_WPSA>
0

> <r_qp_volume>
917.028

> <r_qp_donorHB>
1

> <r_qp_accptHB>
3.5

> <r_qp_dip^2/V>
0.00282704

> <r_qp_ACxDN^.5/SA>
0.00682933

> <r_qp_glob>
0.890697

> <r_qp_QPpolrz>
29.1413

> <r_qp_QPlogPC16>
8.12713

> <r_qp_QPlogPoct>
12.1791

> <r_qp_QPlogPw>
5.95957

> <r_qp_QPlogPo/w>
3.04137

> <r_qp_QPlogS>
-2.50675

> <r_qp_CIQPlogS>
-2.44523

> <r_qp_QPlogHERG>
-4.60817

> <r_qp_QPPCaco>
1535.61

> <r_qp_QPlogBB>
0.53793

> <r_qp_QPPMDCK>
870.117

> <r_qp_QPlogKp>
-3.16998

> <r_qp_IP(eV)>
8.98478

> <r_qp_EA(eV)>
-0.129002

> <i_qp_#metab>
4

> <r_qp_QPlogKhsa>
0.285466

> <i_qp_HumanOralAbsorption>
3

> <r_qp_PercentHumanOralAbsorption>
100

> <r_qp_SAfluorine>
0

> <r_qp_SAamideO>
0

> <r_qp_PSA>
28.5856

> <i_qp_#NandO>
3

> <i_qp_RuleOfFive>
0

> <i_qp_RuleOfThree>
0

> <i_qp_#ringatoms>
12

> <i_qp_#in34>
0

> <i_qp_#in56>
12

> <i_qp_#noncon>
6

> <i_qp_#nonHatm>
19

> <r_qp_Jm>
0.554444

> <stars>
0

> <logP>
3.04137

> <Caco>
1535.61

> <MDCK>
870.117

> <HumanOralAbsorption>
3

> <PercentHumanOralAbsorption>
100.0

> <RuleOfFive>
0

> <base>
fda.sdf

$$$$
Aniracetam.cdx_5
                    3D
 Schrodinger Suite 2022-3.
 29 30  0  0  1  0            999 V2000
   -8.6367   -6.0673   39.2752 C   0  0  0  0  0  0
   -6.6850   -4.6844   38.9356 C   0  0  0  0  0  0
   -9.3322   -5.3190   38.3255 C   0  0  0  0  0  0
   -7.3804   -3.9361   37.9858 C   0  0  0  0  0  0
   -7.3132   -5.7500   39.5803 C   0  0  0  0  0  0
   -8.7041   -4.2535   37.6808 C   0  0  0  0  0  0
   -6.3339   -8.9995   41.2547 C   0  0  0  0  0  0
   -6.5789   -6.5396   40.5824 C   0  0  0  0  0  0
   -6.0371  -10.2460   40.4529 C   0  0  0  0  0  0
   -6.4180   -9.8542   39.0368 C   0  0  0  0  0  0
   -6.1159   -8.3748   38.9959 C   0  0  0  0  0  0
   -8.6797   -2.4477   36.1334 C   0  0  0  0  0  0
   -6.4187   -7.9142   40.3369 N   0  0  0  0  0  0
   -6.4207   -8.9804   42.4738 O   0  0  0  0  0  0
   -6.1728   -5.9534   41.5842 O   0  0  0  0  0  0
   -9.3825   -3.5231   36.7541 O   0  0  0  0  0  0
   -9.1365   -6.8956   39.7711 H   0  0  0  0  0  0
   -5.6537   -4.4292   39.1659 H   0  0  0  0  0  0
  -10.3631   -5.5711   38.0924 H   0  0  0  0  0  0
   -6.8861   -3.1071   37.4870 H   0  0  0  0  0  0
   -4.9689  -10.4701   40.5353 H   0  0  0  0  0  0
   -6.6262  -11.0926   40.8137 H   0  0  0  0  0  0
   -5.8755  -10.4217   38.2758 H   0  0  0  0  0  0
   -7.4917  -10.0208   38.8849 H   0  0  0  0  0  0
   -5.0537   -8.1825   38.8061 H   0  0  0  0  0  0
   -6.7090   -7.8389   38.2486 H   0  0  0  0  0  0
   -9.3357   -1.9486   35.4161 H   0  0  0  0  0  0
   -7.7937   -2.8358   35.6244 H   0  0  0  0  0  0
   -8.3727   -1.7335   36.9012 H   0  0  0  0  0  0
  1  3  2  0  0  0
  1  5  1  0  0  0
  1 17  1  0  0  0
  2  4  1  0  0  0
  2  5  2  0  0  0
  2 18  1  0  0  0
  3  6  1  0  0  0
  3 19  1  0  0  0
  4  6  2  0  0  0
  4 20  1  0  0  0
  5  8  1  0  0  0
  6 16  1  0  0  0
  7  9  1  0  0  0
  7 13  1  0  0  0
  7 14  2  0  0  0
  8 13  1  0  0  0
  8 15  2  0  0  0
  9 10  1  0  0  0
  9 21  1  0  0  0
  9 22  1  0  0  0
 10 11  1  0  0  0
 10 23  1  0  0  0
 10 24  1  0  0  0
 11 13  1  0  0  0
 11 25  1  0  0  0
 11 26  1  0  0  0
 12 16  1  0  0  0
 12 27  1  0  0  0
 12 28  1  0  0  0
 12 29  1  0  0  0
M  END
> <EON_Query>
60c

> <EON_ET_pb>
0.267

> <EON_ET_coul>
0.277

> <EON_ET_combo>
0.667

> <EON_ShapeTanimoto>
0.4

> <ROCS_ShapeQuery>
60c

> <ROCS_TanimotoCombo>
0.889

> <ROCS_ShapeTanimoto>
0.544

> <ROCS_ColorTanimoto>
0.344

> <ROCS_RefTversky>
0.558

> <ROCS_RefColorTversky>
0.394

> <ROCS_RefTverskyCombo>
0.952

> <ROCS_FitTversky>
0.957

> <ROCS_FitColorTversky>
0.732

> <ROCS_FitTverskyCombo>
1.689

> <ROCS_ColorScore>
-3.842

> <ROCS_Overlap>
715.797

> <ROCS_Rank>
121

> <EON_Rank>
240

> <i_qp_#stars>
0

> <i_qp_#amine>
0

> <i_qp_#amidine>
0

> <i_qp_#acid>
0

> <i_qp_#amide>
0

> <i_qp_#rotor>
2

> <i_qp_#rtvFG>
0

> <i_qp_CNS>
0

> <r_qp_mol_MW>
219.24

> <r_qp_dipole>
8.45885

> <r_qp_SASA>
451.497

> <r_qp_FOSA>
230.659

> <r_qp_FISA>
92.7479

> <r_qp_PISA>
128.091

> <r_qp_WPSA>
0

> <r_qp_volume>
749.789

> <r_qp_donorHB>
0

> <r_qp_accptHB>
3.75

> <r_qp_dip^2/V>
0.0954297

> <r_qp_ACxDN^.5/SA>
0

> <r_qp_glob>
0.884035

> <r_qp_QPpolrz>
23.7916

> <r_qp_QPlogPC16>
6.76065

> <r_qp_QPlogPoct>
10.6279

> <r_qp_QPlogPw>
5.56034

> <r_qp_QPlogPo/w>
1.87469

> <r_qp_QPlogS>
-2.44532

> <r_qp_CIQPlogS>
-2.45436

> <r_qp_QPlogHERG>
-4.0193

> <r_qp_QPPCaco>
1307.29

> <r_qp_QPlogBB>
-0.348246

> <r_qp_QPPMDCK>
660.897

> <r_qp_QPlogKp>
-2.5856

> <r_qp_IP(eV)>
9.50808

> <r_qp_EA(eV)>
0.250131

> <i_qp_#metab>
2

> <r_qp_QPlogKhsa>
-0.293406

> <i_qp_HumanOralAbsorption>
3

> <r_qp_PercentHumanOralAbsorption>
93.6996

> <r_qp_SAfluorine>
0

> <r_qp_SAamideO>
0

> <r_qp_PSA>
67.3884

> <i_qp_#NandO>
4

> <i_qp_RuleOfFive>
0

> <i_qp_RuleOfThree>
0

> <i_qp_#ringatoms>
11

> <i_qp_#in34>
0

> <i_qp_#in56>
11

> <i_qp_#noncon>
3

> <i_qp_#nonHatm>
16

> <r_qp_Jm>
1.86786

> <stars>
0

> <logP>
1.87469

> <Caco>
1307.29

> <MDCK>
660.897

> <HumanOralAbsorption>
3

> <PercentHumanOralAbsorption>
93.6996

> <RuleOfFive>
0

> <base>
fda.sdf

$$$$
Molecule_130
                    3D
 Schrodinger Suite 2022-3.
 45 46  0  0  1  0            999 V2000
   -4.6315   -9.4734   35.5105 C   0  0  0  0  0  0
   -4.2103  -10.6541   34.9090 C   0  0  0  0  0  0
   -8.5515   -4.5254   37.3862 C   0  0  0  0  0  0
   -7.2870   -4.3217   39.4347 C   0  0  0  0  0  0
   -8.7341   -5.8859   37.6341 C   0  0  0  0  0  0
   -7.4696   -5.6822   39.6827 C   0  0  0  0  0  0
   -5.2635   -9.5174   36.7482 C   0  0  0  0  0  0
   -4.4432  -11.8433   35.5808 C   0  0  0  0  0  0
   -7.8280   -3.7433   38.2865 C   0  0  0  0  0  0
   -8.1931   -6.4642   38.7823 C   0  0  0  0  0  0
   -5.4494  -10.7575   37.3378 C   0  0  0  0  0  0
   -7.0747   -8.7079   39.0695 C   0  0  0  0  0  0
   -9.1602   -8.2047   40.3530 C   0  0  0  0  0  0
   -6.3756   -2.6255   35.8310 C   0  0  0  0  0  0
   -6.2254   -0.4355   37.0332 C   0  0  0  0  0  0
   -7.6304   -2.2711   38.0191 C   0  0  0  0  0  0
   -6.1281  -10.8425   38.6733 C   0  0  0  0  0  0
   -8.3900   -7.9186   39.0476 C   0  0  1  0  0  0
   -6.3617   -1.9504   37.2049 C   0  0  0  0  0  0
   -5.0540  -11.9257   36.7841 N   0  0  0  0  0  0
   -5.9998   -8.2433   39.4271 O   0  0  0  0  0  0
   -7.2832   -9.9974   38.6649 O   0  0  0  0  0  0
   -4.4672   -8.5209   35.0158 H   0  0  0  0  0  0
   -3.7155  -10.6439   33.9446 H   0  0  0  0  0  0
   -8.9764   -4.0834   36.4888 H   0  0  0  0  0  0
   -6.7231   -3.7194   40.1422 H   0  0  0  0  0  0
   -9.3007   -6.4869   36.9280 H   0  0  0  0  0  0
   -7.0448   -6.1250   40.5798 H   0  0  0  0  0  0
   -5.5967   -8.6036   37.2283 H   0  0  0  0  0  0
   -4.1340  -12.7919   35.1543 H   0  0  0  0  0  0
   -8.6402   -7.8010   41.2289 H   0  0  0  0  0  0
  -10.1565   -7.7504   40.3197 H   0  0  0  0  0  0
   -9.2799   -9.2805   40.5227 H   0  0  0  0  0  0
   -7.2413   -2.3069   35.2405 H   0  0  0  0  0  0
   -6.4082   -3.7155   35.9233 H   0  0  0  0  0  0
   -5.4713   -2.3734   35.2665 H   0  0  0  0  0  0
   -7.0856   -0.0259   36.4931 H   0  0  0  0  0  0
   -6.1615    0.0705   38.0027 H   0  0  0  0  0  0
   -5.3249   -0.1881   36.4610 H   0  0  0  0  0  0
   -8.5136   -1.8620   37.5110 H   0  0  0  0  0  0
   -7.5872   -1.7595   38.9903 H   0  0  0  0  0  0
   -6.4390  -11.8701   38.8901 H   0  0  0  0  0  0
   -5.4525  -10.5196   39.4728 H   0  0  0  0  0  0
   -8.9863   -8.3598   38.2249 H   0  0  0  0  0  0
   -5.4772   -2.3052   37.7493 H   0  0  0  0  0  0
  1  2  2  0  0  0
  1  7  1  0  0  0
  1 23  1  0  0  0
  2  8  1  0  0  0
  2 24  1  0  0  0
  3  5  2  0  0  0
  3  9  1  0  0  0
  3 25  1  0  0  0
  4  6  1  0  0  0
  4  9  2  0  0  0
  4 26  1  0  0  0
  5 10  1  0  0  0
  5 27  1  0  0  0
  6 10  2  0  0  0
  6 28  1  0  0  0
  7 11  2  0  0  0
  7 29  1  0  0  0
  8 20  2  0  0  0
  8 30  1  0  0  0
  9 16  1  0  0  0
 10 18  1  0  0  0
 11 17  1  0  0  0
 11 20  1  0  0  0
 12 18  1  0  0  0
 12 21  2  0  0  0
 12 22  1  0  0  0
 13 18  1  0  0  0
 13 31  1  0  0  0
 13 32  1  0  0  0
 13 33  1  0  0  0
 14 19  1  0  0  0
 14 34  1  0  0  0
 14 35  1  0  0  0
 14 36  1  0  0  0
 15 19  1  0  0  0
 15 37  1  0  0  0
 15 38  1  0  0  0
 15 39  1  0  0  0
 16 19  1  0  0  0
 16 40  1  0  0  0
 16 41  1  0  0  0
 17 22  1  0  0  0
 17 42  1  0  0  0
 17 43  1  0  0  0
 18 44  1  0  0  0
 19 45  1  0  0  0
M  END
> <EON_Query>
60c

> <EON_ET_pb>
0.171

> <EON_ET_coul>
0.157

> <EON_ET_combo>
0.667

> <EON_ShapeTanimoto>
0.496

> <ROCS_ShapeQuery>
60c

> <ROCS_TanimotoCombo>
0.761

> <ROCS_ShapeTanimoto>
0.544

> <ROCS_ColorTanimoto>
0.217

> <ROCS_RefTversky>
0.617

> <ROCS_RefColorTversky>
0.291

> <ROCS_RefTverskyCombo>
0.908

> <ROCS_FitTversky>
0.82

> <ROCS_FitColorTversky>
0.46

> <ROCS_FitTverskyCombo>
1.28

> <ROCS_ColorScore>
-2.853

> <ROCS_Overlap>
799.737

> <ROCS_Rank>
1027

> <EON_Rank>
246

> <i_qp_#stars>
0

> <i_qp_#amine>
0

> <i_qp_#amidine>
0

> <i_qp_#acid>
0

> <i_qp_#amide>
0

> <i_qp_#rotor>
6

> <i_qp_#rtvFG>
1

> <i_qp_CNS>
0

> <r_qp_mol_MW>
297.396

> <r_qp_dipole>
2.582

> <r_qp_SASA>
613.045

> <r_qp_FOSA>
323.143

> <r_qp_FISA>
44.7201

> <r_qp_PISA>
245.182

> <r_qp_WPSA>
0

> <r_qp_volume>
1075.05

> <r_qp_donorHB>
0

> <r_qp_accptHB>
3

> <r_qp_dip^2/V>
0.00620132

> <r_qp_ACxDN^.5/SA>
0

> <r_qp_glob>
0.827862

> <r_qp_QPpolrz>
35.3583

> <r_qp_QPlogPC16>
10.2238

> <r_qp_QPlogPoct>
12.7667

> <r_qp_QPlogPw>
4.79785

> <r_qp_QPlogPo/w>
4.8253

> <r_qp_QPlogS>
-5.2868

> <r_qp_CIQPlogS>
-4.71636

> <r_qp_QPlogHERG>
-5.48664

> <r_qp_QPPCaco>
3730.95

> <r_qp_QPlogBB>
-0.233112

> <r_qp_QPPMDCK>
2053.14

> <r_qp_QPlogKp>
-0.90393

> <r_qp_IP(eV)>
9.52244

> <r_qp_EA(eV)>
0.119853

> <i_qp_#metab>
4

> <r_qp_QPlogKhsa>
0.681601

> <i_qp_HumanOralAbsorption>
3

> <r_qp_PercentHumanOralAbsorption>
100

> <r_qp_SAfluorine>
0

> <r_qp_SAamideO>
0

> <r_qp_PSA>
40.1649

> <i_qp_#NandO>
3

> <i_qp_RuleOfFive>
0

> <i_qp_RuleOfThree>
0

> <i_qp_#ringatoms>
12

> <i_qp_#in34>
0

> <i_qp_#in56>
12

> <i_qp_#noncon>
0

> <i_qp_#nonHatm>
22

> <r_qp_Jm>
0.191694

> <stars>
0

> <logP>
4.8253

> <Caco>
3730.95

> <MDCK>
2053.14

> <HumanOralAbsorption>
3

> <PercentHumanOralAbsorption>
100.0

> <RuleOfFive>
0

> <base>
fda.sdf

$$$$
Benzbromarone .cdx_7
                    3D
 Schrodinger Suite 2022-3.
 33 35  0  0  1  0            999 V2000
   -4.5490   -9.2977   37.2083 C   0  0  0  0  0  0
   -4.6506  -10.6479   37.5531 C   0  0  0  0  0  0
   -5.0887   -8.2990   38.0305 C   0  0  0  0  0  0
   -5.2927  -11.0500   38.7280 C   0  0  0  0  0  0
   -7.8972   -6.3235   38.3257 C   0  0  0  0  0  0
   -7.5016   -4.3773   39.7014 C   0  0  0  0  0  0
   -5.7387   -8.6808   39.2173 C   0  0  0  0  0  0
   -7.3488   -5.7443   39.4700 C   0  0  0  0  0  0
   -6.3929   -8.0041   40.2803 C   0  0  0  0  0  0
   -8.7512   -4.1687   37.6442 C   0  0  0  0  0  0
   -5.8189  -10.0350   39.5250 C   0  0  0  0  0  0
   -8.5984   -5.5357   37.4128 C   0  0  0  0  0  0
   -8.2027   -3.5895   38.7885 C   0  0  0  0  0  0
   -6.8222   -8.9768   41.1533 C   0  0  0  0  0  0
   -6.5907   -6.5942   40.4539 C   0  0  0  0  0  0
   -6.6690   -8.5215   43.6142 C   0  0  0  0  0  0
   -7.5518   -8.9378   42.4302 C   0  0  0  0  0  0
   -9.3981   -3.4425   36.8034 O   0  5  0  0  0  0
   -6.1318   -5.9963   41.4515 O   0  0  0  0  0  0
   -6.4790  -10.2122   40.7041 O   0  0  0  0  0  0
   -9.3013   -6.4333   35.8788 Br  0  0  0  0  0  0
   -8.3513   -1.7308   39.2078 Br  0  0  0  0  0  0
   -4.0432   -9.0156   36.2884 H   0  0  0  0  0  0
   -4.2228  -11.4010   36.8958 H   0  0  0  0  0  0
   -5.0014   -7.2542   37.7477 H   0  0  0  0  0  0
   -5.3750  -12.0949   39.0022 H   0  0  0  0  0  0
   -7.7691   -7.3901   38.1536 H   0  0  0  0  0  0
   -7.0687   -3.9357   40.5966 H   0  0  0  0  0  0
   -5.8008   -9.1836   43.7006 H   0  0  0  0  0  0
   -7.2213   -8.5615   44.5582 H   0  0  0  0  0  0
   -6.2997   -7.4991   43.4802 H   0  0  0  0  0  0
   -8.4144   -8.2424   42.3818 H   0  0  0  0  0  0
   -8.0050   -9.9219   42.6671 H   0  0  0  0  0  0
  1  2  2  0  0  0
  1  3  1  0  0  0
  1 23  1  0  0  0
  2  4  1  0  0  0
  2 24  1  0  0  0
  3  7  2  0  0  0
  3 25  1  0  0  0
  4 11  2  0  0  0
  4 26  1  0  0  0
  5  8  2  0  0  0
  5 12  1  0  0  0
  5 27  1  0  0  0
  6  8  1  0  0  0
  6 13  2  0  0  0
  6 28  1  0  0  0
  7  9  1  0  0  0
  7 11  1  0  0  0
  8 15  1  0  0  0
  9 14  2  0  0  0
  9 15  1  0  0  0
 10 12  2  0  0  0
 10 13  1  0  0  0
 10 18  1  0  0  0
 11 20  1  0  0  0
 12 21  1  0  0  0
 13 22  1  0  0  0
 14 17  1  0  0  0
 14 20  1  0  0  0
 15 19  2  0  0  0
 16 17  1  0  0  0
 16 29  1  0  0  0
 16 30  1  0  0  0
 16 31  1  0  0  0
 17 32  1  0  0  0
 17 33  1  0  0  0
M  CHG  1  18  -1
M  END
> <EON_Query>
60c

> <EON_ET_pb>
0.173

> <EON_ET_coul>
0.102

> <EON_ET_combo>
0.666

> <EON_ShapeTanimoto>
0.493

> <ROCS_ShapeQuery>
60c

> <ROCS_TanimotoCombo>
0.975

> <ROCS_ShapeTanimoto>
0.712

> <ROCS_ColorTanimoto>
0.263

> <ROCS_RefTversky>
0.737

> <ROCS_RefColorTversky>
0.398

> <ROCS_RefTverskyCombo>
1.135

> <ROCS_FitTversky>
0.953

> <ROCS_FitColorTversky>
0.437

> <ROCS_FitTverskyCombo>
1.39

> <ROCS_ColorScore>
-3.96

> <ROCS_Overlap>
956.45

> <ROCS_Rank>
18

> <EON_Rank>
250

> <i_qp_#stars>
0

> <i_qp_#amine>
0

> <i_qp_#amidine>
0

> <i_qp_#acid>
0

> <i_qp_#amide>
0

> <i_qp_#rotor>
4

> <i_qp_#rtvFG>
0

> <i_qp_CNS>
1

> <r_qp_mol_MW>
424.088

> <r_qp_dipole>
1.61699

> <r_qp_SASA>
557.03

> <r_qp_FOSA>
126.891

> <r_qp_FISA>
65.3971

> <r_qp_PISA>
220.113

> <r_qp_WPSA>
144.629

> <r_qp_volume>
965.406

> <r_qp_donorHB>
1

> <r_qp_accptHB>
3.25

> <r_qp_dip^2/V>
0.00270835

> <r_qp_ACxDN^.5/SA>
0.00583452

> <r_qp_glob>
0.84806

> <r_qp_QPpolrz>
32.0152

> <r_qp_QPlogPC16>
10.4221

> <r_qp_QPlogPoct>
14.0259

> <r_qp_QPlogPw>
6.83584

> <r_qp_QPlogPo/w>
4.32647

> <r_qp_QPlogS>
-5.23206

> <r_qp_CIQPlogS>
-7.45273

> <r_qp_QPlogHERG>
-5.04026

> <r_qp_QPPCaco>
2375.42

> <r_qp_QPlogBB>
0.0711357

> <r_qp_QPPMDCK>
7811.89

> <r_qp_QPlogKp>
-1.56534

> <r_qp_IP(eV)>
9.1448

> <r_qp_EA(eV)>
0.896027

> <i_qp_#metab>
3

> <r_qp_QPlogKhsa>
0.449617

> <i_qp_HumanOralAbsorption>
3

> <r_qp_PercentHumanOralAbsorption>
100

> <r_qp_SAfluorine>
0

> <r_qp_SAamideO>
0

> <r_qp_PSA>
52.4718

> <i_qp_#NandO>
3

> <i_qp_RuleOfFive>
0

> <i_qp_RuleOfThree>
0

> <i_qp_#ringatoms>
15

> <i_qp_#in34>
0

> <i_qp_#in56>
15

> <i_qp_#noncon>
0

> <i_qp_#nonHatm>
22

> <r_qp_Jm>
0.0676169

> <stars>
0

> <logP>
4.32647

> <Caco>
2375.42

> <MDCK>
7811.89

> <HumanOralAbsorption>
3

> <PercentHumanOralAbsorption>
100.0

> <RuleOfFive>
0

> <base>
fda.sdf

$$$$
Molecule_46
                    3D
 Schrodinger Suite 2022-3.
 54 56  0  0  1  0            999 V2000
   -8.6448   -3.9570   37.6164 C   0  0  0  0  0  0
   -8.9455   -5.3059   37.4279 C   0  0  0  0  0  0
   -7.8262   -3.5664   38.6762 C   0  0  0  0  0  0
   -8.4280   -6.2643   38.2992 C   0  0  0  0  0  0
   -7.3086   -4.5247   39.5476 C   0  0  0  0  0  0
   -7.6094   -5.8737   39.3591 C   0  0  0  0  0  0
   -5.6472  -10.4183   37.7223 C   0  0  0  0  0  0
   -6.1742   -7.9411   39.5866 C   0  0  0  0  0  0
   -9.6148   -8.1781   43.6080 C   0  0  0  0  0  0
   -8.8347   -9.2481   42.8505 C   0  0  0  0  0  0
  -10.1209   -7.0848   42.6723 C   0  0  0  0  0  0
   -7.6978   -8.6422   42.0307 C   0  0  0  0  0  0
   -8.9862   -6.4753   41.8520 C   0  0  0  0  0  0
   -3.9463  -10.6609   35.5829 C   0  0  0  0  0  0
   -4.9063  -11.8086   35.8600 C   0  0  0  0  0  0
   -4.6558   -9.3314   35.7698 C   0  0  0  0  0  0
   -8.2046   -7.5480   41.0815 C   0  0  0  0  0  0
   -5.9559  -12.8694   37.9045 C   0  0  0  0  0  0
   -6.2545  -10.2486   39.0622 C   0  0  0  0  0  0
   -7.0434   -6.9209   40.3122 C   0  0  2  0  0  0
   -5.5090  -11.6514   37.2053 N   0  0  0  0  0  0
   -5.2658   -9.2978   37.1050 N   0  3  0  0  0  0
   -4.9673   -7.8175   39.4162 O   0  0  0  0  0  0
   -6.1729   -6.3248   41.2766 O   0  0  0  0  0  0
   -6.9276   -8.9991   39.1477 O   0  0  0  0  0  0
   -9.0469   -3.2111   36.9370 H   0  0  0  0  0  0
   -9.5820   -5.6104   36.6022 H   0  0  0  0  0  0
   -7.5910   -2.5164   38.8225 H   0  0  0  0  0  0
   -8.6679   -7.3130   38.1449 H   0  0  0  0  0  0
   -6.6718   -4.2112   40.3705 H   0  0  0  0  0  0
  -10.4617   -8.6387   44.1291 H   0  0  0  0  0  0
   -8.9701   -7.7317   44.3752 H   0  0  0  0  0  0
   -8.4294   -9.9791   43.5594 H   0  0  0  0  0  0
   -9.5147   -9.7929   42.1840 H   0  0  0  0  0  0
  -10.8758   -7.5037   41.9956 H   0  0  0  0  0  0
  -10.6162   -6.3008   43.2565 H   0  0  0  0  0  0
   -6.9448   -8.2261   42.7122 H   0  0  0  0  0  0
   -7.2027   -9.4351   41.4574 H   0  0  0  0  0  0
   -9.4005   -5.7391   41.1527 H   0  0  0  0  0  0
   -8.3098   -5.9300   42.5228 H   0  0  0  0  0  0
   -3.1005  -10.7219   36.2788 H   0  0  0  0  0  0
   -3.5449  -10.7377   34.5672 H   0  0  0  0  0  0
   -5.7181  -11.8338   35.1249 H   0  0  0  0  0  0
   -4.3641  -12.7593   35.8144 H   0  0  0  0  0  0
   -3.9474   -8.5012   35.6912 H   0  0  0  0  0  0
   -5.4468   -9.1887   35.0266 H   0  0  0  0  0  0
   -8.8837   -8.0115   40.3528 H   0  0  0  0  0  0
   -6.9914  -13.0970   37.6385 H   0  0  0  0  0  0
   -5.8936  -12.7283   38.9870 H   0  0  0  0  0  0
   -5.3261  -13.7184   37.6251 H   0  0  0  0  0  0
   -5.4909  -10.2853   39.8469 H   0  0  0  0  0  0
   -6.9850  -11.0419   39.2527 H   0  0  0  0  0  0
   -5.8565   -7.0461   41.8402 H   0  0  0  0  0  0
   -5.3982   -8.4178   37.5611 H   0  0  0  0  0  0
  1  2  2  0  0  0
  1  3  1  0  0  0
  1 26  1  0  0  0
  2  4  1  0  0  0
  2 27  1  0  0  0
  3  5  2  0  0  0
  3 28  1  0  0  0
  4  6  2  0  0  0
  4 29  1  0  0  0
  5  6  1  0  0  0
  5 30  1  0  0  0
  6 20  1  0  0  0
  7 19  1  0  0  0
  7 21  1  0  0  0
  7 22  2  0  0  0
  8 20  1  0  0  0
  8 23  2  0  0  0
  8 25  1  0  0  0
  9 10  1  0  0  0
  9 11  1  0  0  0
  9 31  1  0  0  0
  9 32  1  0  0  0
 10 12  1  0  0  0
 10 33  1  0  0  0
 10 34  1  0  0  0
 11 13  1  0  0  0
 11 35  1  0  0  0
 11 36  1  0  0  0
 12 17  1  0  0  0
 12 37  1  0  0  0
 12 38  1  0  0  0
 13 17  1  0  0  0
 13 39  1  0  0  0
 13 40  1  0  0  0
 14 15  1  0  0  0
 14 16  1  0  0  0
 14 41  1  0  0  0
 14 42  1  0  0  0
 15 21  1  0  0  0
 15 43  1  0  0  0
 15 44  1  0  0  0
 16 22  1  0  0  0
 16 45  1  0  0  0
 16 46  1  0  0  0
 17 20  1  0  0  0
 17 47  1  0  0  0
 18 21  1  0  0  0
 18 48  1  0  0  0
 18 49  1  0  0  0
 18 50  1  0  0  0
 19 25  1  0  0  0
 19 51  1  0  0  0
 19 52  1  0  0  0
 20 24  1  0  0  0
 22 54  1  0  0  0
 24 53  1  0  0  0
M  CHG  1  22   1
M  END
> <EON_Query>
60c

> <EON_ET_pb>
0.177

> <EON_ET_coul>
0.104

> <EON_ET_combo>
0.666

> <EON_ShapeTanimoto>
0.489

> <ROCS_ShapeQuery>
60c

> <ROCS_TanimotoCombo>
0.786

> <ROCS_ShapeTanimoto>
0.591

> <ROCS_ColorTanimoto>
0.195

> <ROCS_RefTversky>
0.69

> <ROCS_RefColorTversky>
0.297

> <ROCS_RefTverskyCombo>
0.987

> <ROCS_FitTversky>
0.804

> <ROCS_FitColorTversky>
0.363

> <ROCS_FitTverskyCombo>
1.167

> <ROCS_ColorScore>
-2.938

> <ROCS_Overlap>
899.079

> <ROCS_Rank>
763

> <EON_Rank>
251

> <i_qp_#stars>
0

> <i_qp_#amine>
0

> <i_qp_#amidine>
0

> <i_qp_#acid>
0

> <i_qp_#amide>
0

> <i_qp_#rotor>
6

> <i_qp_#rtvFG>
0

> <i_qp_CNS>
0

> <r_qp_mol_MW>
344.453

> <r_qp_dipole>
6.83882

> <r_qp_SASA>
637.325

> <r_qp_FOSA>
425.375

> <r_qp_FISA>
49.2854

> <r_qp_PISA>
162.665

> <r_qp_WPSA>
0

> <r_qp_volume>
1149.09

> <r_qp_donorHB>
1

> <r_qp_accptHB>
4.25

> <r_qp_dip^2/V>
0.0407014

> <r_qp_ACxDN^.5/SA>
0.0066685

> <r_qp_glob>
0.832479

> <r_qp_QPpolrz>
37.5334

> <r_qp_QPlogPC16>
10.6109

> <r_qp_QPlogPoct>
16.0582

> <r_qp_QPlogPw>
7.02192

> <r_qp_QPlogPo/w>
4.5547

> <r_qp_QPlogS>
-5.35739

> <r_qp_CIQPlogS>
-5.00914

> <r_qp_QPlogHERG>
-5.0184

> <r_qp_QPPCaco>
3376.97

> <r_qp_QPlogBB>
-0.272219

> <r_qp_QPPMDCK>
1843.42

> <r_qp_QPlogKp>
-1.27875

> <r_qp_IP(eV)>
8.41131

> <r_qp_EA(eV)>
-0.413057

> <i_qp_#metab>
3

> <r_qp_QPlogKhsa>
0.666619

> <i_qp_HumanOralAbsorption>
3

> <r_qp_PercentHumanOralAbsorption>
100

> <r_qp_SAfluorine>
0

> <r_qp_SAamideO>
0

> <r_qp_PSA>
52.046

> <i_qp_#NandO>
5

> <i_qp_RuleOfFive>
0

> <i_qp_RuleOfThree>
0

> <i_qp_#ringatoms>
18

> <i_qp_#in34>
0

> <i_qp_#in56>
18

> <i_qp_#noncon>
9

> <i_qp_#nonHatm>
25

> <r_qp_Jm>
0.0796133

> <stars>
0

> <logP>
4.5547

> <Caco>
3376.97

> <MDCK>
1843.42

> <HumanOralAbsorption>
3

> <PercentHumanOralAbsorption>
100.0

> <RuleOfFive>
0

> <base>
fda.sdf

$$$$
AZOLID (phenylbutazone).cdx_12
                    3D
 Schrodinger Suite 2022-3.
 43 45  0  0  1  0            999 V2000
  -11.2502   -8.6722   36.7923 C   0  0  0  0  0  0
   -5.6692  -10.5713   40.1232 C   0  0  0  0  0  0
  -10.7945   -7.5260   36.1413 C   0  0  0  0  0  0
  -10.6835   -9.0558   38.0079 C   0  0  0  0  0  0
   -6.2593   -9.9278   41.2109 C   0  0  0  0  0  0
   -5.6527   -9.9538   38.8725 C   0  0  0  0  0  0
   -9.7720   -6.7633   36.7056 C   0  0  0  0  0  0
   -9.6610   -8.2932   38.5722 C   0  0  0  0  0  0
   -6.8329   -8.6668   41.0480 C   0  0  0  0  0  0
   -6.2263   -8.6929   38.7096 C   0  0  0  0  0  0
   -9.2052   -7.1469   37.9210 C   0  0  0  0  0  0
   -6.8164   -8.0493   39.7973 C   0  0  0  0  0  0
   -8.0600   -4.9803   38.2976 C   0  0  0  0  0  0
   -6.9639   -5.6329   40.3436 C   0  0  0  0  0  0
   -7.3060   -4.4361   39.4877 C   0  0  0  0  0  0
   -7.6081   -0.3332   37.9912 C   0  0  0  0  0  0
   -8.1393   -3.4308   40.2619 C   0  0  0  0  0  0
   -7.2513   -1.5164   38.8769 C   0  0  0  0  0  0
   -8.5023   -2.2220   39.3997 C   0  0  0  0  0  0
   -8.1584   -6.3659   38.4987 N   0  0  0  0  0  0
   -7.4036   -6.7584   39.6307 N   0  0  0  0  0  0
   -8.5430   -4.2772   37.4221 O   0  0  0  0  0  0
   -6.3351   -5.5596   41.3890 O   0  0  0  0  0  0
  -12.0469   -9.2659   36.3536 H   0  0  0  0  0  0
   -5.2218  -11.5529   40.2499 H   0  0  0  0  0  0
  -11.2360   -7.2265   35.1954 H   0  0  0  0  0  0
  -11.0394   -9.9479   38.5151 H   0  0  0  0  0  0
   -6.2717  -10.4077   42.1850 H   0  0  0  0  0  0
   -5.1921  -10.4549   38.0260 H   0  0  0  0  0  0
   -9.4250   -5.8718   36.1891 H   0  0  0  0  0  0
   -9.2269   -8.6018   39.5200 H   0  0  0  0  0  0
   -7.2898   -8.1747   41.9030 H   0  0  0  0  0  0
   -6.2074   -8.2215   37.7302 H   0  0  0  0  0  0
   -6.3721   -3.9892   39.1312 H   0  0  0  0  0  0
   -8.2175   -0.6506   37.1392 H   0  0  0  0  0  0
   -6.6994    0.1368   37.6023 H   0  0  0  0  0  0
   -8.1678    0.4220   38.5522 H   0  0  0  0  0  0
   -9.0523   -3.9206   40.6200 H   0  0  0  0  0  0
   -7.5787   -3.1036   41.1451 H   0  0  0  0  0  0
   -6.6425   -1.1652   39.7182 H   0  0  0  0  0  0
   -6.6376   -2.2219   38.3045 H   0  0  0  0  0  0
   -9.1026   -1.5176   39.9883 H   0  0  0  0  0  0
   -9.1216   -2.5460   38.5545 H   0  0  0  0  0  0
  1  3  2  0  0  0
  1  4  1  0  0  0
  1 24  1  0  0  0
  2  5  2  0  0  0
  2  6  1  0  0  0
  2 25  1  0  0  0
  3  7  1  0  0  0
  3 26  1  0  0  0
  4  8  2  0  0  0
  4 27  1  0  0  0
  5  9  1  0  0  0
  5 28  1  0  0  0
  6 10  2  0  0  0
  6 29  1  0  0  0
  7 11  2  0  0  0
  7 30  1  0  0  0
  8 11  1  0  0  0
  8 31  1  0  0  0
  9 12  2  0  0  0
  9 32  1  0  0  0
 10 12  1  0  0  0
 10 33  1  0  0  0
 11 20  1  0  0  0
 12 21  1  0  0  0
 13 15  1  0  0  0
 13 20  1  0  0  0
 13 22  2  0  0  0
 14 15  1  0  0  0
 14 21  1  0  0  0
 14 23  2  0  0  0
 15 17  1  0  0  0
 15 34  1  0  0  0
 16 18  1  0  0  0
 16 35  1  0  0  0
 16 36  1  0  0  0
 16 37  1  0  0  0
 17 19  1  0  0  0
 17 38  1  0  0  0
 17 39  1  0  0  0
 18 19  1  0  0  0
 18 40  1  0  0  0
 18 41  1  0  0  0
 19 42  1  0  0  0
 19 43  1  0  0  0
 20 21  1  0  0  0
M  END
> <EON_Query>
60c

> <EON_ET_pb>
0.19

> <EON_ET_coul>
0.25

> <EON_ET_combo>
0.663

> <EON_ShapeTanimoto>
0.473

> <ROCS_ShapeQuery>
60c

> <ROCS_TanimotoCombo>
0.678

> <ROCS_ShapeTanimoto>
0.527

> <ROCS_ColorTanimoto>
0.15

> <ROCS_RefTversky>
0.625

> <ROCS_RefColorTversky>
0.225

> <ROCS_RefTverskyCombo>
0.851

> <ROCS_FitTversky>
0.771

> <ROCS_FitColorTversky>
0.311

> <ROCS_FitTverskyCombo>
1.081

> <ROCS_ColorScore>
-2.221

> <ROCS_Overlap>
812.791

> <ROCS_Rank>
2062

> <EON_Rank>
262

> <i_qp_#stars>
0

> <i_qp_#amine>
0

> <i_qp_#amidine>
0

> <i_qp_#acid>
0

> <i_qp_#amide>
0

> <i_qp_#rotor>
3

> <i_qp_#rtvFG>
1

> <i_qp_CNS>
0

> <r_qp_mol_MW>
308.379

> <r_qp_dipole>
3.29743

> <r_qp_SASA>
577.214

> <r_qp_FOSA>
184.717

> <r_qp_FISA>
55.9722

> <r_qp_PISA>
336.525

> <r_qp_WPSA>
0

> <r_qp_volume>
1023.54

> <r_qp_donorHB>
0

> <r_qp_accptHB>
5

> <r_qp_dip^2/V>
0.010623

> <r_qp_ACxDN^.5/SA>
0

> <r_qp_glob>
0.850939

> <r_qp_QPpolrz>
36.0957

> <r_qp_QPlogPC16>
10.5001

> <r_qp_QPlogPoct>
14.5363

> <r_qp_QPlogPw>
8.04121

> <r_qp_QPlogPo/w>
3.54438

> <r_qp_QPlogS>
-4.04901

> <r_qp_CIQPlogS>
-4.25684

> <r_qp_QPlogHERG>
-5.54884

> <r_qp_QPPCaco>
2918.2

> <r_qp_QPlogBB>
-0.132646

> <r_qp_QPPMDCK>
1574.29

> <r_qp_QPlogKp>
-1.07756

> <r_qp_IP(eV)>
8.81818

> <r_qp_EA(eV)>
0.263156

> <i_qp_#metab>
1

> <r_qp_QPlogKhsa>
0.124465

> <i_qp_HumanOralAbsorption>
3

> <r_qp_PercentHumanOralAbsorption>
100

> <r_qp_SAfluorine>
0

> <r_qp_SAamideO>
0

> <r_qp_PSA>
53.4611

> <i_qp_#NandO>
4

> <i_qp_RuleOfFive>
0

> <i_qp_RuleOfThree>
0

> <i_qp_#ringatoms>
17

> <i_qp_#in34>
0

> <i_qp_#in56>
17

> <i_qp_#noncon>
1

> <i_qp_#nonHatm>
23

> <r_qp_Jm>
2.30416

> <stars>
0

> <logP>
3.54438

> <Caco>
2918.2

> <MDCK>
1574.29

> <HumanOralAbsorption>
3

> <PercentHumanOralAbsorption>
100.0

> <RuleOfFive>
0

> <base>
fda.sdf

$$$$
Molecule_2
                    3D
 Schrodinger Suite 2022-3.
 35 35  0  0  1  0            999 V2000
   -8.2319   -6.3444   38.4056 C   0  0  0  0  0  0
   -7.3368   -4.4770   39.6501 C   0  0  0  0  0  0
   -8.7842   -5.4614   37.4778 C   0  0  0  0  0  0
   -7.8892   -3.5939   38.7223 C   0  0  0  0  0  0
   -7.5083   -5.8522   39.4918 C   0  0  0  0  0  0
   -8.6129   -4.0862   37.6361 C   0  0  0  0  0  0
   -6.5066   -8.0601   40.1680 C   0  0  0  0  0  0
   -5.3473   -9.6313   38.5676 C   0  0  0  0  0  0
   -4.3333  -10.8159   35.2754 C   0  0  0  0  0  0
   -5.9110  -12.1962   36.6756 C   0  0  0  0  0  0
   -4.8236  -11.1353   36.6773 C   0  0  0  0  0  0
   -6.5483   -9.0706   41.1349 N   0  0  0  0  0  0
   -4.7928  -10.4369   39.4686 N   0  0  0  0  0  0
   -6.9417   -6.7581   40.4439 N   0  0  0  0  0  0
   -5.9110   -8.3884   38.9374 N   0  3  0  0  0  0
   -5.3759   -9.9104   37.2604 N   0  3  0  0  0  0
   -9.2943   -2.9967   36.4915 Cl  0  0  0  0  0  0
   -8.3698   -7.4145   38.2765 H   0  0  0  0  0  0
   -6.7738   -4.0869   40.4937 H   0  0  0  0  0  0
   -9.3463   -5.8590   36.6368 H   0  0  0  0  0  0
   -7.7471   -2.5249   38.8582 H   0  0  0  0  0  0
   -5.1597  -10.4903   34.6357 H   0  0  0  0  0  0
   -3.5771  -10.0233   35.2898 H   0  0  0  0  0  0
   -3.8738  -11.6987   34.8180 H   0  0  0  0  0  0
   -6.7544  -11.8817   36.0517 H   0  0  0  0  0  0
   -6.2839  -12.3765   37.6888 H   0  0  0  0  0  0
   -5.5405  -13.1448   36.2715 H   0  0  0  0  0  0
   -3.9856  -11.4589   37.3032 H   0  0  0  0  0  0
   -6.9293   -8.8887   42.0607 H   0  0  0  0  0  0
   -6.2673  -10.0263   40.9366 H   0  0  0  0  0  0
   -4.7828  -10.1881   40.4514 H   0  0  0  0  0  0
   -4.4081  -11.3400   39.2256 H   0  0  0  0  0  0
   -6.9238   -6.4491   41.4149 H   0  0  0  0  0  0
   -5.8830   -7.6639   38.2486 H   0  0  0  0  0  0
   -5.7986   -9.2447   36.6455 H   0  0  0  0  0  0
  1  3  2  0  0  0
  1  5  1  0  0  0
  1 18  1  0  0  0
  2  4  1  0  0  0
  2  5  2  0  0  0
  2 19  1  0  0  0
  3  6  1  0  0  0
  3 20  1  0  0  0
  4  6  2  0  0  0
  4 21  1  0  0  0
  5 14  1  0  0  0
  6 17  1  0  0  0
  7 12  1  0  0  0
  7 14  1  0  0  0
  7 15  2  0  0  0
  8 13  1  0  0  0
  8 15  1  0  0  0
  8 16  2  0  0  0
  9 11  1  0  0  0
  9 22  1  0  0  0
  9 23  1  0  0  0
  9 24  1  0  0  0
 10 11  1  0  0  0
 10 25  1  0  0  0
 10 26  1  0  0  0
 10 27  1  0  0  0
 11 16  1  0  0  0
 11 28  1  0  0  0
 12 29  1  0  0  0
 12 30  1  0  0  0
 13 31  1  0  0  0
 13 32  1  0  0  0
 14 33  1  0  0  0
 15 34  1  0  0  0
 16 35  1  0  0  0
M  CHG  2  15   1  16   1
M  END
> <EON_Query>
60c

> <EON_ET_pb>
0.051

> <EON_ET_coul>
0.024

> <EON_ET_combo>
0.659

> <EON_ShapeTanimoto>
0.608

> <ROCS_ShapeQuery>
60c

> <ROCS_TanimotoCombo>
0.744

> <ROCS_ShapeTanimoto>
0.689

> <ROCS_ColorTanimoto>
0.055

> <ROCS_RefTversky>
0.645

> <ROCS_RefColorTversky>
0.1

> <ROCS_RefTverskyCombo>
0.746

> <ROCS_FitTversky>
1.108

> <ROCS_FitColorTversky>
0.11

> <ROCS_FitTverskyCombo>
1.218

> <ROCS_ColorScore>
-1

> <ROCS_Overlap>
828.1

> <ROCS_Rank>
1214

> <EON_Rank>
274

> <i_qp_#stars>
0

> <i_qp_#amine>
0

> <i_qp_#amidine>
1

> <i_qp_#acid>
0

> <i_qp_#amide>
0

> <i_qp_#rotor>
6

> <i_qp_#rtvFG>
0

> <i_qp_CNS>
-1

> <r_qp_mol_MW>
253.734

> <r_qp_dipole>
11.401

> <r_qp_SASA>
527.55

> <r_qp_FOSA>
175.999

> <r_qp_FISA>
122.551

> <r_qp_PISA>
157.448

> <r_qp_WPSA>
71.5518

> <r_qp_volume>
864.201

> <r_qp_donorHB>
5

> <r_qp_accptHB>
3.5

> <r_qp_dip^2/V>
0.150409

> <r_qp_ACxDN^.5/SA>
0.0148351

> <r_qp_glob>
0.831722

> <r_qp_QPpolrz>
26.0824

> <r_qp_QPlogPC16>
9.69985

> <r_qp_QPlogPoct>
19.6049

> <r_qp_QPlogPw>
12.3654

> <r_qp_QPlogPo/w>
1.9964

> <r_qp_QPlogS>
-3.19168

> <r_qp_CIQPlogS>
-2.92391

> <r_qp_QPlogHERG>
-5.00578

> <r_qp_QPPCaco>
681.939

> <r_qp_QPlogBB>
-0.803613

> <r_qp_QPPMDCK>
806.508

> <r_qp_QPlogKp>
-4.71002

> <r_qp_IP(eV)>
8.02659

> <r_qp_EA(eV)>
0.210381

> <i_qp_#metab>
1

> <r_qp_QPlogKhsa>
-0.34504

> <i_qp_HumanOralAbsorption>
3

> <r_qp_PercentHumanOralAbsorption>
89.3536

> <r_qp_SAfluorine>
0

> <r_qp_SAamideO>
0

> <r_qp_PSA>
84.4822

> <i_qp_#NandO>
5

> <i_qp_RuleOfFive>
0

> <i_qp_RuleOfThree>
0

> <i_qp_#ringatoms>
6

> <i_qp_#in34>
0

> <i_qp_#in56>
6

> <i_qp_#noncon>
0

> <i_qp_#nonHatm>
17

> <r_qp_Jm>
0.00318183

> <stars>
0

> <logP>
1.9964

> <Caco>
681.939

> <MDCK>
806.508

> <HumanOralAbsorption>
3

> <PercentHumanOralAbsorption>
89.3536

> <RuleOfFive>
0

> <base>
fda.sdf

$$$$
S5416 Metyrapone.cdx_17
                    3D
 Schrodinger Suite 2022-3.
 31 32  0  0  1  0            999 V2000
   -4.3725  -10.1558   35.1769 C   0  0  0  0  0  0
   -7.4661   -4.0823   37.9650 C   0  0  0  0  0  0
   -5.0661   -9.2102   35.9240 C   0  0  0  0  0  0
   -7.2780   -5.3411   37.4055 C   0  0  0  0  0  0
   -4.2720  -11.4397   35.6883 C   0  0  0  0  0  0
   -8.2093   -3.9954   39.1311 C   0  0  0  0  0  0
   -5.4735  -10.8821   37.5655 C   0  0  0  0  0  0
   -8.5577   -6.2657   39.1841 C   0  0  0  0  0  0
   -5.6301   -9.5722   37.1422 C   0  0  0  0  0  0
   -7.8310   -6.4589   38.0203 C   0  0  0  0  0  0
   -6.3782   -8.5812   37.9642 C   0  0  0  0  0  0
   -7.5737   -7.9240   35.8858 C   0  0  0  0  0  0
   -8.8791   -8.7032   37.8400 C   0  0  0  0  0  0
   -7.6411   -7.8630   37.4279 C   0  0  0  0  0  0
   -4.8065  -11.8286   36.8676 N   0  0  0  0  0  0
   -8.7620   -5.0585   39.7573 N   0  0  0  0  0  0
   -5.9570   -8.3767   39.1045 O   0  0  0  0  0  0
   -3.9250   -9.8966   34.2244 H   0  0  0  0  0  0
   -7.0439   -3.1971   37.5030 H   0  0  0  0  0  0
   -5.1605   -8.1948   35.5482 H   0  0  0  0  0  0
   -6.6994   -5.4416   36.4911 H   0  0  0  0  0  0
   -3.7408  -12.2137   35.1444 H   0  0  0  0  0  0
   -8.3849   -3.0362   39.6068 H   0  0  0  0  0  0
   -5.8920  -11.2242   38.5073 H   0  0  0  0  0  0
   -9.0129   -7.1002   39.7084 H   0  0  0  0  0  0
   -7.4382   -8.9419   35.5100 H   0  0  0  0  0  0
   -6.7502   -7.3147   35.4948 H   0  0  0  0  0  0
   -8.4998   -7.5456   35.4358 H   0  0  0  0  0  0
   -8.8147   -9.7263   37.4502 H   0  0  0  0  0  0
   -9.8142   -8.2647   37.4722 H   0  0  0  0  0  0
   -8.9728   -8.7717   38.9307 H   0  0  0  0  0  0
  1  3  2  0  0  0
  1  5  1  0  0  0
  1 18  1  0  0  0
  2  4  2  0  0  0
  2  6  1  0  0  0
  2 19  1  0  0  0
  3  9  1  0  0  0
  3 20  1  0  0  0
  4 10  1  0  0  0
  4 21  1  0  0  0
  5 15  2  0  0  0
  5 22  1  0  0  0
  6 16  2  0  0  0
  6 23  1  0  0  0
  7  9  2  0  0  0
  7 15  1  0  0  0
  7 24  1  0  0  0
  8 10  2  0  0  0
  8 16  1  0  0  0
  8 25  1  0  0  0
  9 11  1  0  0  0
 10 14  1  0  0  0
 11 14  1  0  0  0
 11 17  2  0  0  0
 12 14  1  0  0  0
 12 26  1  0  0  0
 12 27  1  0  0  0
 12 28  1  0  0  0
 13 14  1  0  0  0
 13 29  1  0  0  0
 13 30  1  0  0  0
 13 31  1  0  0  0
M  END
> <EON_Query>
60c

> <EON_ET_pb>
0.254

> <EON_ET_coul>
0.273

> <EON_ET_combo>
0.658

> <EON_ShapeTanimoto>
0.404

> <ROCS_ShapeQuery>
60c

> <ROCS_TanimotoCombo>
0.677

> <ROCS_ShapeTanimoto>
0.447

> <ROCS_ColorTanimoto>
0.231

> <ROCS_RefTversky>
0.498

> <ROCS_RefColorTversky>
0.306

> <ROCS_RefTverskyCombo>
0.804

> <ROCS_FitTversky>
0.813

> <ROCS_FitColorTversky>
0.484

> <ROCS_FitTverskyCombo>
1.297

> <ROCS_ColorScore>
-3.002

> <ROCS_Overlap>
639.869

> <ROCS_Rank>
2065

> <EON_Rank>
279

> <i_qp_#stars>
0

> <i_qp_#amine>
0

> <i_qp_#amidine>
0

> <i_qp_#acid>
0

> <i_qp_#amide>
0

> <i_qp_#rotor>
3

> <i_qp_#rtvFG>
0

> <i_qp_CNS>
0

> <r_qp_mol_MW>
226.277

> <r_qp_dipole>
6.11206

> <r_qp_SASA>
464.029

> <r_qp_FOSA>
98.4395

> <r_qp_FISA>
88.6977

> <r_qp_PISA>
276.891

> <r_qp_WPSA>
0

> <r_qp_volume>
787.491

> <r_qp_donorHB>
0

> <r_qp_accptHB>
5

> <r_qp_dip^2/V>
0.0474384

> <r_qp_ACxDN^.5/SA>
0

> <r_qp_glob>
0.888759

> <r_qp_QPpolrz>
26.0794

> <r_qp_QPlogPC16>
8.1943

> <r_qp_QPlogPoct>
11.6525

> <r_qp_QPlogPw>
7.5857

> <r_qp_QPlogPo/w>
1.70806

> <r_qp_QPlogS>
-1.89312

> <r_qp_CIQPlogS>
-2.27834

> <r_qp_QPlogHERG>
-4.65248

> <r_qp_QPPCaco>
1428.17

> <r_qp_QPlogBB>
-0.365934

> <r_qp_QPPMDCK>
727.191

> <r_qp_QPlogKp>
-1.89076

> <r_qp_IP(eV)>
10.083

> <r_qp_EA(eV)>
0.593909

> <i_qp_#metab>
5

> <r_qp_QPlogKhsa>
-0.560793

> <i_qp_HumanOralAbsorption>
3

> <r_qp_PercentHumanOralAbsorption>
93.4113

> <r_qp_SAfluorine>
0

> <r_qp_SAamideO>
0

> <r_qp_PSA>
49.5914

> <i_qp_#NandO>
3

> <i_qp_RuleOfFive>
0

> <i_qp_RuleOfThree>
0

> <i_qp_#ringatoms>
12

> <i_qp_#in34>
0

> <i_qp_#in56>
12

> <i_qp_#noncon>
0

> <i_qp_#nonHatm>
17

> <r_qp_Jm>
36.2858

> <stars>
0

> <logP>
1.70806

> <Caco>
1428.17

> <MDCK>
727.191

> <HumanOralAbsorption>
3

> <PercentHumanOralAbsorption>
93.4113

> <RuleOfFive>
0

> <base>
fda.sdf

$$$$
S4593 Chlormadinone acetate.cdx_1
                    3D
 Schrodinger Suite 2022-3.
 57 60  0  0  1  0            999 V2000
   -3.9039  -10.9369   37.3383 C   0  0  0  0  0  0
   -5.9135   -8.5896   39.3554 C   0  0  0  0  0  0
   -4.9388  -10.1548   37.7024 C   0  0  0  0  0  0
   -5.0092   -9.5303   39.0326 C   0  0  0  0  0  0
   -3.8250  -11.5901   36.0087 C   0  0  0  0  0  0
   -9.5626   -3.7829   37.6199 C   0  0  0  0  0  0
   -7.1385   -2.5130   37.8476 C   0  0  0  0  0  0
   -4.9423  -11.3751   35.0260 C   0  0  0  0  0  0
   -5.6307  -10.0412   35.2650 C   0  0  0  0  0  0
   -7.5384   -5.9584   39.8996 C   0  0  0  0  0  0
   -7.5883   -7.8084   35.9323 C   0  0  0  0  0  0
   -8.1593   -4.5832   39.5778 C   0  0  0  0  0  0
   -7.9121   -6.3178   36.1581 C   0  0  0  0  0  0
   -6.9406   -8.0489   38.3989 C   0  0  2  0  0  0
   -6.5253   -8.3394   36.9262 C   0  0  1  0  0  0
   -7.1712   -6.5372   38.5346 C   0  0  1  0  0  0
   -6.1012   -9.8397   36.7320 C   0  0  2  0  0  0
   -8.3398   -4.5384   38.0441 C   0  0  1  0  0  0
   -8.3128   -6.0277   37.6150 C   0  0  1  0  0  0
   -9.8196   -3.6872   36.1403 C   0  0  0  0  0  0
   -5.8046   -2.2978   38.4959 C   0  0  0  0  0  0
   -7.2710  -10.8100   37.0223 C   0  0  0  0  0  0
   -9.6874   -6.6930   37.9092 C   0  0  0  0  0  0
   -2.8777  -12.3316   35.7511 O   0  0  0  0  0  0
  -10.3202   -3.2682   38.4409 O   0  0  0  0  0  0
   -7.9780   -1.6353   37.6997 O   0  0  0  0  0  0
   -7.2589   -3.8174   37.4596 O   0  0  0  0  0  0
   -3.9351  -10.0557   40.3016 Cl  0  0  0  0  0  0
   -3.0666  -11.1516   37.9934 H   0  0  0  0  0  0
   -5.9492   -8.2123   40.3749 H   0  0  0  0  0  0
   -4.5193  -11.3812   34.0152 H   0  0  0  0  0  0
   -5.6424  -12.2126   35.1038 H   0  0  0  0  0  0
   -4.9319   -9.2378   34.9926 H   0  0  0  0  0  0
   -6.4776   -9.9686   34.5723 H   0  0  0  0  0  0
   -6.6628   -5.8507   40.5480 H   0  0  0  0  0  0
   -8.2618   -6.5919   40.4250 H   0  0  0  0  0  0
   -8.5050   -8.4026   35.9997 H   0  0  0  0  0  0
   -7.2285   -7.9093   34.9028 H   0  0  0  0  0  0
   -9.1124   -4.4826   40.1097 H   0  0  0  0  0  0
   -7.4977   -3.7840   39.9309 H   0  0  0  0  0  0
   -7.0249   -5.7351   35.8805 H   0  0  0  0  0  0
   -8.7099   -6.0093   35.4719 H   0  0  0  0  0  0
   -7.8746   -8.5676   38.6388 H   0  0  0  0  0  0
   -5.6204   -7.7403   36.7253 H   0  0  0  0  0  0
   -6.2297   -6.0450   38.2392 H   0  0  0  0  0  0
  -10.4331   -4.5328   35.8170 H   0  0  0  0  0  0
   -8.8694   -3.7135   35.6011 H   0  0  0  0  0  0
  -10.3528   -2.7591   35.9203 H   0  0  0  0  0  0
   -5.8810   -2.4794   39.5708 H   0  0  0  0  0  0
   -5.4570   -1.2803   38.3005 H   0  0  0  0  0  0
   -5.0791   -2.9998   38.0745 H   0  0  0  0  0  0
   -8.0843  -10.5894   36.3433 H   0  0  0  0  0  0
   -7.5932  -10.6719   38.0461 H   0  0  0  0  0  0
   -6.9274  -11.8254   36.8740 H   0  0  0  0  0  0
   -9.9563   -6.4820   38.9334 H   0  0  0  0  0  0
   -9.5911   -7.7572   37.7553 H   0  0  0  0  0  0
  -10.4192   -6.2776   37.2328 H   0  0  0  0  0  0
  1  3  2  0  0  0
  1  5  1  0  0  0
  1 29  1  0  0  0
  2  4  2  0  0  0
  2 14  1  0  0  0
  2 30  1  0  0  0
  3  4  1  0  0  0
  3 17  1  0  0  0
  4 28  1  0  0  0
  5  8  1  0  0  0
  5 24  2  0  0  0
  6 18  1  0  0  0
  6 20  1  0  0  0
  6 25  2  0  0  0
  7 21  1  0  0  0
  7 26  2  0  0  0
  7 27  1  0  0  0
  8  9  1  0  0  0
  8 31  1  0  0  0
  8 32  1  0  0  0
  9 17  1  0  0  0
  9 33  1  0  0  0
  9 34  1  0  0  0
 10 12  1  0  0  0
 10 16  1  0  0  0
 10 35  1  0  0  0
 10 36  1  0  0  0
 11 13  1  0  0  0
 11 15  1  0  0  0
 11 37  1  0  0  0
 11 38  1  0  0  0
 12 18  1  0  0  0
 12 39  1  0  0  0
 12 40  1  0  0  0
 13 19  1  0  0  0
 13 41  1  0  0  0
 13 42  1  0  0  0
 14 15  1  0  0  0
 14 16  1  0  0  0
 14 43  1  0  0  0
 15 17  1  0  0  0
 15 44  1  0  0  0
 16 19  1  0  0  0
 16 45  1  0  0  0
 17 22  1  0  0  0
 18 19  1  0  0  0
 18 27  1  0  0  0
 19 23  1  0  0  0
 20 46  1  0  0  0
 20 47  1  0  0  0
 20 48  1  0  0  0
 21 49  1  0  0  0
 21 50  1  0  0  0
 21 51  1  0  0  0
 22 52  1  0  0  0
 22 53  1  0  0  0
 22 54  1  0  0  0
 23 55  1  0  0  0
 23 56  1  0  0  0
 23 57  1  0  0  0
M  END
> <EON_Query>
60c

> <EON_ET_pb>
0.159

> <EON_ET_coul>
0.142

> <EON_ET_combo>
0.656

> <EON_ShapeTanimoto>
0.497

> <ROCS_ShapeQuery>
60c

> <ROCS_TanimotoCombo>
0.785

> <ROCS_ShapeTanimoto>
0.523

> <ROCS_ColorTanimoto>
0.262

> <ROCS_RefTversky>
0.673

> <ROCS_RefColorTversky>
0.359

> <ROCS_RefTverskyCombo>
1.032

> <ROCS_FitTversky>
0.702

> <ROCS_FitColorTversky>
0.493

> <ROCS_FitTverskyCombo>
1.195

> <ROCS_ColorScore>
-3.533

> <ROCS_Overlap>
882.005

> <ROCS_Rank>
764

> <EON_Rank>
290

> <i_qp_#stars>
0

> <i_qp_#amine>
0

> <i_qp_#amidine>
0

> <i_qp_#acid>
0

> <i_qp_#amide>
0

> <i_qp_#rotor>
2

> <i_qp_#rtvFG>
1

> <i_qp_CNS>
0

> <r_qp_mol_MW>
404.933

> <r_qp_dipole>
2.29972

> <r_qp_SASA>
661.479

> <r_qp_FOSA>
432.505

> <r_qp_FISA>
122.654

> <r_qp_PISA>
43.4729

> <r_qp_WPSA>
62.8469

> <r_qp_volume>
1213.96

> <r_qp_donorHB>
0

> <r_qp_accptHB>
6

> <r_qp_dip^2/V>
0.00435655

> <r_qp_ACxDN^.5/SA>
0

> <r_qp_glob>
0.831993

> <r_qp_QPpolrz>
41.5598

> <r_qp_QPlogPC16>
11.1076

> <r_qp_QPlogPoct>
17.0973

> <r_qp_QPlogPw>
7.93188

> <r_qp_QPlogPo/w>
3.73478

> <r_qp_QPlogS>
-5.56274

> <r_qp_CIQPlogS>
-5.13083

> <r_qp_QPlogHERG>
-4.45785

> <r_qp_QPPCaco>
680.414

> <r_qp_QPlogBB>
-0.584136

> <r_qp_QPPMDCK>
720.897

> <r_qp_QPlogKp>
-3.43485

> <r_qp_IP(eV)>
9.55966

> <r_qp_EA(eV)>
0.87352

> <i_qp_#metab>
2

> <r_qp_QPlogKhsa>
0.452216

> <i_qp_HumanOralAbsorption>
3

> <r_qp_PercentHumanOralAbsorption>
100

> <r_qp_SAfluorine>
0

> <r_qp_SAamideO>
0

> <r_qp_PSA>
78.1732

> <i_qp_#NandO>
4

> <i_qp_RuleOfFive>
0

> <i_qp_RuleOfThree>
0

> <i_qp_#ringatoms>
17

> <i_qp_#in34>
0

> <i_qp_#in56>
17

> <i_qp_#noncon>
12

> <i_qp_#nonHatm>
28

> <r_qp_Jm>
4.1073E-4

> <stars>
0

> <logP>
3.73478

> <Caco>
680.414

> <MDCK>
720.897

> <HumanOralAbsorption>
3

> <PercentHumanOralAbsorption>
100.0

> <RuleOfFive>
0

> <base>
fda.sdf

$$$$
Nefiracetam.cdx_6
                    3D
 Schrodinger Suite 2022-3.
 36 37  0  0  1  0            999 V2000
   -3.8109  -11.2319   35.6040 C   0  0  0  0  0  0
   -4.4217  -11.6900   36.7713 C   0  0  0  0  0  0
   -4.2193  -10.0282   35.0292 C   0  0  0  0  0  0
   -5.4413  -10.9448   37.3637 C   0  0  0  0  0  0
   -5.2387   -9.2830   35.6217 C   0  0  0  0  0  0
   -5.8497   -9.7412   36.7890 C   0  0  0  0  0  0
   -7.6482   -5.2757   39.3213 C   0  0  0  0  0  0
   -6.9041   -8.4414   38.6714 C   0  0  0  0  0  0
   -7.5383   -4.0499   38.4449 C   0  0  0  0  0  0
   -8.3760   -4.4135   37.2249 C   0  0  0  0  0  0
   -8.2458   -5.9205   37.1298 C   0  0  0  0  0  0
   -6.0765  -11.4619   38.6139 C   0  0  0  0  0  0
   -5.6536   -7.9975   34.9822 C   0  0  0  0  0  0
   -8.2062   -7.7032   38.9146 C   0  0  0  0  0  0
   -8.0733   -6.3219   38.5058 N   0  0  0  0  0  0
   -6.8842   -8.9851   37.3897 N   0  0  0  0  0  0
   -7.3619   -5.3098   40.5086 O   0  0  0  0  0  0
   -6.0213   -8.5074   39.5210 O   0  0  0  0  0  0
   -3.0168  -11.8119   35.1428 H   0  0  0  0  0  0
   -4.0967  -12.6292   37.2111 H   0  0  0  0  0  0
   -3.7364   -9.6799   34.1201 H   0  0  0  0  0  0
   -7.9260   -3.1656   38.9561 H   0  0  0  0  0  0
   -6.4872   -3.9007   38.1787 H   0  0  0  0  0  0
   -9.4234   -4.1427   37.4091 H   0  0  0  0  0  0
   -8.0516   -3.9000   36.3155 H   0  0  0  0  0  0
   -9.1365   -6.3864   36.6990 H   0  0  0  0  0  0
   -7.3556   -6.2204   36.5678 H   0  0  0  0  0  0
   -5.5411  -11.0876   39.4936 H   0  0  0  0  0  0
   -7.1254  -11.1495   38.6826 H   0  0  0  0  0  0
   -6.0668  -12.5582   38.6377 H   0  0  0  0  0  0
   -6.4554   -8.1766   34.2569 H   0  0  0  0  0  0
   -6.0120   -7.2810   35.7310 H   0  0  0  0  0  0
   -4.8111   -7.5241   34.4635 H   0  0  0  0  0  0
   -8.4631   -7.7470   39.9777 H   0  0  0  0  0  0
   -9.0020   -8.1862   38.3388 H   0  0  0  0  0  0
   -7.7027   -8.8278   36.8054 H   0  0  0  0  0  0
  1  2  2  0  0  0
  1  3  1  0  0  0
  1 19  1  0  0  0
  2  4  1  0  0  0
  2 20  1  0  0  0
  3  5  2  0  0  0
  3 21  1  0  0  0
  4  6  2  0  0  0
  4 12  1  0  0  0
  5  6  1  0  0  0
  5 13  1  0  0  0
  6 16  1  0  0  0
  7  9  1  0  0  0
  7 15  1  0  0  0
  7 17  2  0  0  0
  8 14  1  0  0  0
  8 16  1  0  0  0
  8 18  2  0  0  0
  9 10  1  0  0  0
  9 22  1  0  0  0
  9 23  1  0  0  0
 10 11  1  0  0  0
 10 24  1  0  0  0
 10 25  1  0  0  0
 11 15  1  0  0  0
 11 26  1  0  0  0
 11 27  1  0  0  0
 12 28  1  0  0  0
 12 29  1  0  0  0
 12 30  1  0  0  0
 13 31  1  0  0  0
 13 32  1  0  0  0
 13 33  1  0  0  0
 14 15  1  0  0  0
 14 34  1  0  0  0
 14 35  1  0  0  0
 16 36  1  0  0  0
M  END
> <EON_Query>
60c

> <EON_ET_pb>
0.185

> <EON_ET_coul>
0.19

> <EON_ET_combo>
0.656

> <EON_ShapeTanimoto>
0.471

> <ROCS_ShapeQuery>
60c

> <ROCS_TanimotoCombo>
0.816

> <ROCS_ShapeTanimoto>
0.496

> <ROCS_ColorTanimoto>
0.32

> <ROCS_RefTversky>
0.543

> <ROCS_RefColorTversky>
0.373

> <ROCS_RefTverskyCombo>
0.917

> <ROCS_FitTversky>
0.85

> <ROCS_FitColorTversky>
0.693

> <ROCS_FitTverskyCombo>
1.543

> <ROCS_ColorScore>
-3.641

> <ROCS_Overlap>
699.638

> <ROCS_Rank>
512

> <EON_Rank>
292

> <i_qp_#stars>
0

> <i_qp_#amine>
0

> <i_qp_#amidine>
0

> <i_qp_#acid>
0

> <i_qp_#amide>
1

> <i_qp_#rotor>
3

> <i_qp_#rtvFG>
0

> <i_qp_CNS>
0

> <r_qp_mol_MW>
246.308

> <r_qp_dipole>
8.81886

> <r_qp_SASA>
500.826

> <r_qp_FOSA>
295.839

> <r_qp_FISA>
77.2702

> <r_qp_PISA>
127.717

> <r_qp_WPSA>
0

> <r_qp_volume>
857.431

> <r_qp_donorHB>
1

> <r_qp_accptHB>
5.5

> <r_qp_dip^2/V>
0.0907038

> <r_qp_ACxDN^.5/SA>
0.0109819

> <r_qp_glob>
0.87152

> <r_qp_QPpolrz>
27.4538

> <r_qp_QPlogPC16>
7.87795

> <r_qp_QPlogPoct>
14.1204

> <r_qp_QPlogPw>
11.2448

> <r_qp_QPlogPo/w>
1.3869

> <r_qp_QPlogS>
-1.91344

> <r_qp_CIQPlogS>
-1.91863

> <r_qp_QPlogHERG>
-2.84562

> <r_qp_QPPCaco>
937.782

> <r_qp_QPlogBB>
-0.295539

> <r_qp_QPPMDCK>
952.314

> <r_qp_QPlogKp>
-2.20565

> <r_qp_IP(eV)>
9.20258

> <r_qp_EA(eV)>
-0.0377151

> <i_qp_#metab>
5

> <r_qp_QPlogKhsa>
-0.521605

> <i_qp_HumanOralAbsorption>
3

> <r_qp_PercentHumanOralAbsorption>
88.2613

> <r_qp_SAfluorine>
0

> <r_qp_SAamideO>
36.5634

> <r_qp_PSA>
62.2573

> <i_qp_#NandO>
4

> <i_qp_RuleOfFive>
0

> <i_qp_RuleOfThree>
0

> <i_qp_#ringatoms>
11

> <i_qp_#in34>
0

> <i_qp_#in56>
11

> <i_qp_#noncon>
3

> <i_qp_#nonHatm>
18

> <r_qp_Jm>
22.9192

> <stars>
0

> <logP>
1.3869

> <Caco>
937.782

> <MDCK>
952.314

> <HumanOralAbsorption>
3

> <PercentHumanOralAbsorption>
88.2613

> <RuleOfFive>
0

> <base>
fda.sdf

$$$$
Felodipine.cdx_11
                    3D
 Schrodinger Suite 2022-3.
 44 45  0  0  1  0            999 V2000
   -5.1163   -8.9683   37.3477 C   0  0  0  0  0  0
   -6.2596   -8.3869   37.8957 C   0  0  0  0  0  0
   -4.1115   -8.1618   36.8130 C   0  0  0  0  0  0
   -6.3982   -6.9990   37.9092 C   0  0  0  0  0  0
   -4.2501   -6.7739   36.8266 C   0  0  0  0  0  0
   -5.3935   -6.1924   37.3746 C   0  0  0  0  0  0
   -8.4023   -5.6005   37.4589 C   0  0  0  0  0  0
   -7.2988   -5.6092   39.7610 C   0  0  0  0  0  0
   -8.5589   -4.2639   37.5933 C   0  0  0  0  0  0
   -7.4978   -4.2724   39.8073 C   0  0  0  0  0  0
   -8.9846   -6.3491   36.3332 C   0  0  0  0  0  0
   -6.7882   -6.3646   40.9166 C   0  0  0  0  0  0
   -7.6475   -6.4212   38.5097 C   0  0  2  0  0  0
   -9.2383   -3.3613   36.5992 C   0  0  0  0  0  0
   -7.1457   -3.3779   40.9649 C   0  0  0  0  0  0
   -5.6128   -9.2018   41.5228 C   0  0  0  0  0  0
   -8.3879   -7.7139   34.5139 C   0  0  0  0  0  0
   -6.8834   -8.4853   41.9279 C   0  0  0  0  0  0
   -8.0741   -3.6276   38.7247 N   0  0  0  0  0  0
  -10.1794   -6.3914   36.1047 O   0  0  0  0  0  0
   -6.0412   -5.8874   41.7507 O   0  0  0  0  0  0
   -7.9778   -6.9428   35.6478 O   0  0  0  0  0  0
   -7.2914   -7.6215   40.8621 O   0  0  0  0  0  0
   -2.9659   -5.8356   36.1466 Cl  0  0  0  0  0  0
   -5.5891   -4.4687   37.4028 Cl  0  0  0  0  0  0
   -5.0088  -10.0488   37.3367 H   0  0  0  0  0  0
   -7.0363   -9.0251   38.3090 H   0  0  0  0  0  0
   -3.2274   -8.6324   36.3898 H   0  0  0  0  0  0
   -8.2926   -7.2551   38.8156 H   0  0  0  0  0  0
  -10.2962   -3.2993   36.8366 H   0  0  0  0  0  0
   -9.1081   -3.7663   35.5997 H   0  0  0  0  0  0
   -8.7907   -2.3727   36.6488 H   0  0  0  0  0  0
   -6.1307   -3.0125   40.8392 H   0  0  0  0  0  0
   -7.2223   -3.9420   41.8902 H   0  0  0  0  0  0
   -7.8377   -2.5410   40.9945 H   0  0  0  0  0  0
   -5.7748   -9.8064   40.6261 H   0  0  0  0  0  0
   -4.8108   -8.4833   41.3245 H   0  0  0  0  0  0
   -5.2634   -9.8539   42.3303 H   0  0  0  0  0  0
   -7.5093   -8.1492   34.0313 H   0  0  0  0  0  0
   -8.9230   -7.0718   33.8097 H   0  0  0  0  0  0
   -9.0508   -8.5149   34.8497 H   0  0  0  0  0  0
   -6.7145   -7.8824   42.8251 H   0  0  0  0  0  0
   -7.6837   -9.2046   42.1248 H   0  0  0  0  0  0
   -8.2185   -2.6267   38.7978 H   0  0  0  0  0  0
  1  2  2  0  0  0
  1  3  1  0  0  0
  1 26  1  0  0  0
  2  4  1  0  0  0
  2 27  1  0  0  0
  3  5  2  0  0  0
  3 28  1  0  0  0
  4  6  2  0  0  0
  4 13  1  0  0  0
  5  6  1  0  0  0
  5 24  1  0  0  0
  6 25  1  0  0  0
  7  9  2  0  0  0
  7 11  1  0  0  0
  7 13  1  0  0  0
  8 10  2  0  0  0
  8 12  1  0  0  0
  8 13  1  0  0  0
  9 14  1  0  0  0
  9 19  1  0  0  0
 10 15  1  0  0  0
 10 19  1  0  0  0
 11 20  2  0  0  0
 11 22  1  0  0  0
 12 21  2  0  0  0
 12 23  1  0  0  0
 13 29  1  0  0  0
 14 30  1  0  0  0
 14 31  1  0  0  0
 14 32  1  0  0  0
 15 33  1  0  0  0
 15 34  1  0  0  0
 15 35  1  0  0  0
 16 18  1  0  0  0
 16 36  1  0  0  0
 16 37  1  0  0  0
 16 38  1  0  0  0
 17 22  1  0  0  0
 17 39  1  0  0  0
 17 40  1  0  0  0
 17 41  1  0  0  0
 18 23  1  0  0  0
 18 42  1  0  0  0
 18 43  1  0  0  0
 19 44  1  0  0  0
M  END
> <EON_Query>
60c

> <EON_ET_pb>
0.193

> <EON_ET_coul>
0.217

> <EON_ET_combo>
0.655

> <EON_ShapeTanimoto>
0.462

> <ROCS_ShapeQuery>
60c

> <ROCS_TanimotoCombo>
0.683

> <ROCS_ShapeTanimoto>
0.504

> <ROCS_ColorTanimoto>
0.179

> <ROCS_RefTversky>
0.62

> <ROCS_RefColorTversky>
0.248

> <ROCS_RefTverskyCombo>
0.868

> <ROCS_FitTversky>
0.73

> <ROCS_FitColorTversky>
0.392

> <ROCS_FitTverskyCombo>
1.122

> <ROCS_ColorScore>
-2.43

> <ROCS_Overlap>
807.526

> <ROCS_Rank>
1984

> <EON_Rank>
293

> <i_qp_#stars>
0

> <i_qp_#amine>
0

> <i_qp_#amidine>
0

> <i_qp_#acid>
0

> <i_qp_#amide>
0

> <i_qp_#rotor>
3

> <i_qp_#rtvFG>
2

> <i_qp_CNS>
1

> <r_qp_mol_MW>
384.258

> <r_qp_dipole>
1.46928

> <r_qp_SASA>
594.508

> <r_qp_FOSA>
350.744

> <r_qp_FISA>
66.7462

> <r_qp_PISA>
87.9484

> <r_qp_WPSA>
89.07

> <r_qp_volume>
1090.32

> <r_qp_donorHB>
0

> <r_qp_accptHB>
3.5

> <r_qp_dip^2/V>
0.00197993

> <r_qp_ACxDN^.5/SA>
0

> <r_qp_glob>
0.861743

> <r_qp_QPpolrz>
36.3944

> <r_qp_QPlogPC16>
10.1077

> <r_qp_QPlogPoct>
13.8637

> <r_qp_QPlogPw>
5.01903

> <r_qp_QPlogPo/w>
3.97314

> <r_qp_QPlogS>
-5.80598

> <r_qp_CIQPlogS>
-6.26434

> <r_qp_QPlogHERG>
-4.18857

> <r_qp_QPPCaco>
2306.46

> <r_qp_QPlogBB>
0.00204425

> <r_qp_QPPMDCK>
3754.71

> <r_qp_QPlogKp>
-2.15179

> <r_qp_IP(eV)>
8.41788

> <r_qp_EA(eV)>
0.308077

> <i_qp_#metab>
5

> <r_qp_QPlogKhsa>
0.719583

> <i_qp_HumanOralAbsorption>
3

> <r_qp_PercentHumanOralAbsorption>
100

> <r_qp_SAfluorine>
0

> <r_qp_SAamideO>
0

> <r_qp_PSA>
68.2007

> <i_qp_#NandO>
5

> <i_qp_RuleOfFive>
0

> <i_qp_RuleOfThree>
1

> <i_qp_#ringatoms>
12

> <i_qp_#in34>
0

> <i_qp_#in56>
12

> <i_qp_#noncon>
1

> <i_qp_#nonHatm>
25

> <r_qp_Jm>
0.00762861

> <stars>
0

> <logP>
3.97314

> <Caco>
2306.46

> <MDCK>
3754.71

> <HumanOralAbsorption>
3

> <PercentHumanOralAbsorption>
100.0

> <RuleOfFive>
0

> <base>
fda.sdf

$$$$
Pregnenolone.cdx_1
                    3D
 Schrodinger Suite 2022-3.
 55 58  0  0  1  0            999 V2000
   -5.5743  -10.2813   39.3294 C   0  0  0  0  0  0
   -5.8096  -10.5655   38.0367 C   0  0  0  0  0  0
   -8.0613   -3.1456   39.3354 C   0  0  0  0  0  0
   -5.8211   -8.9521   39.9678 C   0  0  0  0  0  0
   -5.5440  -11.9571   37.5104 C   0  0  0  0  0  0
   -7.1611   -4.7382   41.0772 C   0  0  0  0  0  0
   -6.9811   -6.2668   41.0603 C   0  0  0  0  0  0
   -6.8733   -6.9680   36.7459 C   0  0  0  0  0  0
   -5.2972  -11.0179   35.1882 C   0  0  0  0  0  0
   -5.4965   -9.6027   35.7292 C   0  0  0  0  0  0
   -6.8316   -5.5622   37.3695 C   0  0  0  0  0  0
   -7.1187   -4.2782   39.6046 C   0  0  1  0  0  0
   -6.6756   -8.0067   39.1103 C   0  0  2  0  0  0
   -6.2127   -8.0653   37.6252 C   0  0  1  0  0  0
   -6.5716   -6.5667   39.6225 C   0  0  1  0  0  0
   -4.6901  -11.9332   36.2466 C   0  0  2  0  0  0
   -6.3396   -9.5277   37.0372 C   0  0  2  0  0  0
   -7.3997   -5.5636   38.7952 C   0  0  2  0  0  0
   -7.8401   -1.8804   40.1196 C   0  0  0  0  0  0
   -7.8125   -9.8802   36.7179 C   0  0  0  0  0  0
   -8.9175   -5.8796   38.7643 C   0  0  0  0  0  0
   -8.9700   -3.2442   38.5125 O   0  0  0  0  0  0
   -4.6018  -13.2588   35.7345 O   0  0  0  0  0  0
   -5.1783  -11.0534   39.9848 H   0  0  0  0  0  0
   -6.3214   -9.1122   40.9306 H   0  0  0  0  0  0
   -4.8466   -8.4992   40.1889 H   0  0  0  0  0  0
   -5.0459  -12.5851   38.2606 H   0  0  0  0  0  0
   -6.4968  -12.4630   37.3091 H   0  0  0  0  0  0
   -8.0992   -4.4717   41.5772 H   0  0  0  0  0  0
   -6.3501   -4.2624   41.6405 H   0  0  0  0  0  0
   -6.2216   -6.5860   41.7813 H   0  0  0  0  0  0
   -7.9194   -6.7672   41.3241 H   0  0  0  0  0  0
   -7.9173   -7.2190   36.5376 H   0  0  0  0  0  0
   -6.3699   -6.9210   35.7736 H   0  0  0  0  0  0
   -6.2469  -11.4327   34.8285 H   0  0  0  0  0  0
   -4.6421  -10.9882   34.3087 H   0  0  0  0  0  0
   -4.5032   -9.1686   35.9075 H   0  0  0  0  0  0
   -5.9602   -8.9976   34.9409 H   0  0  0  0  0  0
   -5.7907   -5.2137   37.3767 H   0  0  0  0  0  0
   -7.3869   -4.8626   36.7334 H   0  0  0  0  0  0
   -6.1109   -3.9029   39.3819 H   0  0  0  0  0  0
   -7.7162   -8.3430   39.1833 H   0  0  0  0  0  0
   -5.1384   -7.8184   37.6372 H   0  0  0  0  0  0
   -5.5086   -6.2814   39.5426 H   0  0  0  0  0  0
   -3.6739  -11.6012   36.4923 H   0  0  0  0  0  0
   -7.1576   -1.2229   39.5738 H   0  0  0  0  0  0
   -7.3978   -2.1227   41.0889 H   0  0  0  0  0  0
   -8.7930   -1.3640   40.2582 H   0  0  0  0  0  0
   -8.1995   -9.1558   36.0135 H   0  0  0  0  0  0
   -8.3851   -9.8499   37.6355 H   0  0  0  0  0  0
   -7.8483  -10.8730   36.2889 H   0  0  0  0  0  0
   -9.2925   -5.8746   39.7782 H   0  0  0  0  0  0
   -9.0587   -6.8540   38.3176 H   0  0  0  0  0  0
   -9.4165   -5.1219   38.1764 H   0  0  0  0  0  0
   -4.0550  -13.2114   34.9344 H   0  0  0  0  0  0
  1  2  2  0  0  0
  1  4  1  0  0  0
  1 24  1  0  0  0
  2  5  1  0  0  0
  2 17  1  0  0  0
  3 12  1  0  0  0
  3 19  1  0  0  0
  3 22  2  0  0  0
  4 13  1  0  0  0
  4 25  1  0  0  0
  4 26  1  0  0  0
  5 16  1  0  0  0
  5 27  1  0  0  0
  5 28  1  0  0  0
  6  7  1  0  0  0
  6 12  1  0  0  0
  6 29  1  0  0  0
  6 30  1  0  0  0
  7 15  1  0  0  0
  7 31  1  0  0  0
  7 32  1  0  0  0
  8 11  1  0  0  0
  8 14  1  0  0  0
  8 33  1  0  0  0
  8 34  1  0  0  0
  9 10  1  0  0  0
  9 16  1  0  0  0
  9 35  1  0  0  0
  9 36  1  0  0  0
 10 17  1  0  0  0
 10 37  1  0  0  0
 10 38  1  0  0  0
 11 18  1  0  0  0
 11 39  1  0  0  0
 11 40  1  0  0  0
 12 18  1  0  0  0
 12 41  1  0  0  0
 13 14  1  0  0  0
 13 15  1  0  0  0
 13 42  1  0  0  0
 14 17  1  0  0  0
 14 43  1  0  0  0
 15 18  1  0  0  0
 15 44  1  0  0  0
 16 23  1  0  0  0
 16 45  1  0  0  0
 17 20  1  0  0  0
 18 21  1  0  0  0
 19 46  1  0  0  0
 19 47  1  0  0  0
 19 48  1  0  0  0
 20 49  1  0  0  0
 20 50  1  0  0  0
 20 51  1  0  0  0
 21 52  1  0  0  0
 21 53  1  0  0  0
 21 54  1  0  0  0
 23 55  1  0  0  0
M  END
> <EON_Query>
60c

> <EON_ET_pb>
0.13

> <EON_ET_coul>
0.128

> <EON_ET_combo>
0.654

> <EON_ShapeTanimoto>
0.524

> <ROCS_ShapeQuery>
60c

> <ROCS_TanimotoCombo>
0.806

> <ROCS_ShapeTanimoto>
0.541

> <ROCS_ColorTanimoto>
0.265

> <ROCS_RefTversky>
0.628

> <ROCS_RefColorTversky>
0.362

> <ROCS_RefTverskyCombo>
0.99

> <ROCS_FitTversky>
0.796

> <ROCS_FitColorTversky>
0.498

> <ROCS_FitTverskyCombo>
1.294

> <ROCS_ColorScore>
-3.568

> <ROCS_Overlap>
815.692

> <ROCS_Rank>
588

> <EON_Rank>
296

> <i_qp_#stars>
0

> <i_qp_#amine>
0

> <i_qp_#amidine>
0

> <i_qp_#acid>
0

> <i_qp_#amide>
0

> <i_qp_#rotor>
2

> <i_qp_#rtvFG>
1

> <i_qp_CNS>
0

> <r_qp_mol_MW>
316.483

> <r_qp_dipole>
3.79357

> <r_qp_SASA>
555.154

> <r_qp_FOSA>
448.265

> <r_qp_FISA>
77.418

> <r_qp_PISA>
29.471

> <r_qp_WPSA>
0

> <r_qp_volume>
1043.77

> <r_qp_donorHB>
1

> <r_qp_accptHB>
3.7

> <r_qp_dip^2/V>
0.0137878

> <r_qp_ACxDN^.5/SA>
0.00666481

> <r_qp_glob>
0.896369

> <r_qp_QPpolrz>
34.6148

> <r_qp_QPlogPC16>
9.06521

> <r_qp_QPlogPoct>
14.6087

> <r_qp_QPlogPw>
6.45019

> <r_qp_QPlogPo/w>
3.68017

> <r_qp_QPlogS>
-4.73923

> <r_qp_CIQPlogS>
-4.20568

> <r_qp_QPlogHERG>
-3.34941

> <r_qp_QPPCaco>
1827.03

> <r_qp_QPlogBB>
-0.199418

> <r_qp_QPPMDCK>
948.999

> <r_qp_QPlogKp>
-2.65048

> <r_qp_IP(eV)>
9.49882

> <r_qp_EA(eV)>
-0.692408

> <i_qp_#metab>
4

> <r_qp_QPlogKhsa>
0.677668

> <i_qp_HumanOralAbsorption>
3

> <r_qp_PercentHumanOralAbsorption>
100

> <r_qp_SAfluorine>
0

> <r_qp_SAamideO>
0

> <r_qp_PSA>
44.6319

> <i_qp_#NandO>
2

> <i_qp_RuleOfFive>
0

> <i_qp_RuleOfThree>
0

> <i_qp_#ringatoms>
17

> <i_qp_#in34>
0

> <i_qp_#in56>
17

> <i_qp_#noncon>
15

> <i_qp_#nonHatm>
23

> <r_qp_Jm>
0.0129064

> <stars>
0

> <logP>
3.68017

> <Caco>
1827.03

> <MDCK>
948.999

> <HumanOralAbsorption>
3

> <PercentHumanOralAbsorption>
100.0

> <RuleOfFive>
0

> <base>
fda.sdf

$$$$
Rolipram.cdx_40
                    3D
 Schrodinger Suite 2022-3.
 41 43  0  0  1  0            999 V2000
   -6.0441  -10.5652   39.8355 C   0  0  0  0  0  0
   -6.7133   -9.9877   40.9146 C   0  0  0  0  0  0
   -5.5997   -8.3678   38.9350 C   0  0  0  0  0  0
   -5.4872   -9.7552   38.8458 C   0  0  0  0  0  0
   -6.8258   -8.6003   41.0037 C   0  0  0  0  0  0
   -6.2689   -7.7903   40.0140 C   0  0  0  0  0  0
   -4.5403  -10.6415   35.3056 C   0  0  0  0  0  0
   -4.8118   -9.5915   36.3548 C   0  0  0  0  0  0
   -8.2709   -3.8308   38.3630 C   0  0  0  0  0  0
   -9.1607   -5.0599   38.1597 C   0  0  0  0  0  0
   -7.1337   -4.2815   39.2710 C   0  0  0  0  0  0
   -8.4994   -6.1928   38.9354 C   0  0  0  0  0  0
   -5.2562  -11.7619   37.2430 C   0  0  0  0  0  0
   -4.7590  -10.3814   37.6767 C   0  0  2  0  0  0
   -7.0394   -5.7782   39.0254 C   0  0  0  0  0  0
   -8.0217   -8.9472   43.0299 C   0  0  0  0  0  0
   -4.8087  -11.8752   35.8831 N   0  0  0  0  0  0
   -4.1920  -10.4207   34.1562 O   0  0  0  0  0  0
   -6.3737   -6.4263   40.0904 O   0  0  0  0  0  0
   -7.4820   -8.0488   42.0627 O   0  0  0  0  0  0
   -5.9599  -11.6469   39.7750 H   0  0  0  0  0  0
   -7.1450  -10.6246   41.6817 H   0  0  0  0  0  0
   -5.1660   -7.7341   38.1651 H   0  0  0  0  0  0
   -4.0032   -8.8575   36.3086 H   0  0  0  0  0  0
   -5.7723   -9.1052   36.1781 H   0  0  0  0  0  0
   -7.8908   -3.4448   37.4126 H   0  0  0  0  0  0
   -8.8493   -3.0296   38.8353 H   0  0  0  0  0  0
  -10.1629   -4.8591   38.5560 H   0  0  0  0  0  0
   -9.2723   -5.3104   37.1000 H   0  0  0  0  0  0
   -6.2041   -3.7915   38.9637 H   0  0  0  0  0  0
   -7.3366   -4.0313   40.3150 H   0  0  0  0  0  0
   -8.9681   -6.3285   39.9149 H   0  0  0  0  0  0
   -8.5910   -7.1278   38.3701 H   0  0  0  0  0  0
   -4.7680  -12.5578   37.8114 H   0  0  0  0  0  0
   -6.3398  -11.8876   37.2887 H   0  0  0  0  0  0
   -3.6615  -10.4726   38.0087 H   0  0  0  0  0  0
   -6.4895   -5.9994   38.0870 H   0  0  0  0  0  0
   -8.5179   -8.3782   43.8199 H   0  0  0  0  0  0
   -7.2176   -9.5541   43.4535 H   0  0  0  0  0  0
   -8.7496   -9.5996   42.5418 H   0  0  0  0  0  0
   -4.7007  -12.7573   35.3984 H   0  0  0  0  0  0
  1  2  2  0  0  0
  1  4  1  0  0  0
  1 21  1  0  0  0
  2  5  1  0  0  0
  2 22  1  0  0  0
  3  4  2  0  0  0
  3  6  1  0  0  0
  3 23  1  0  0  0
  4 14  1  0  0  0
  5  6  2  0  0  0
  5 20  1  0  0  0
  6 19  1  0  0  0
  7  8  1  0  0  0
  7 17  1  0  0  0
  7 18  2  0  0  0
  8 14  1  0  0  0
  8 24  1  0  0  0
  8 25  1  0  0  0
  9 10  1  0  0  0
  9 11  1  0  0  0
  9 26  1  0  0  0
  9 27  1  0  0  0
 10 12  1  0  0  0
 10 28  1  0  0  0
 10 29  1  0  0  0
 11 15  1  0  0  0
 11 30  1  0  0  0
 11 31  1  0  0  0
 12 15  1  0  0  0
 12 32  1  0  0  0
 12 33  1  0  0  0
 13 14  1  0  0  0
 13 17  1  0  0  0
 13 34  1  0  0  0
 13 35  1  0  0  0
 14 36  1  0  0  0
 15 19  1  0  0  0
 15 37  1  0  0  0
 16 20  1  0  0  0
 16 38  1  0  0  0
 16 39  1  0  0  0
 16 40  1  0  0  0
 17 41  1  0  0  0
M  END
> <EON_Query>
60c

> <EON_ET_pb>
0.089

> <EON_ET_coul>
0.089

> <EON_ET_combo>
0.653

> <EON_ShapeTanimoto>
0.564

> <ROCS_ShapeQuery>
60c

> <ROCS_TanimotoCombo>
0.924

> <ROCS_ShapeTanimoto>
0.71

> <ROCS_ColorTanimoto>
0.214

> <ROCS_RefTversky>
0.71

> <ROCS_RefColorTversky>
0.304

> <ROCS_RefTverskyCombo>
1.014

> <ROCS_FitTversky>
1

> <ROCS_FitColorTversky>
0.419

> <ROCS_FitTverskyCombo>
1.419

> <ROCS_ColorScore>
-2.997

> <ROCS_Overlap>
917.386

> <ROCS_Rank>
53

> <EON_Rank>
307

> <i_qp_#stars>
0

> <i_qp_#amine>
0

> <i_qp_#amidine>
0

> <i_qp_#acid>
0

> <i_qp_#amide>
1

> <i_qp_#rotor>
3

> <i_qp_#rtvFG>
0

> <i_qp_CNS>
0

> <r_qp_mol_MW>
275.347

> <r_qp_dipole>
5.38434

> <r_qp_SASA>
536.829

> <r_qp_FOSA>
378.118

> <r_qp_FISA>
92.9192

> <r_qp_PISA>
65.7922

> <r_qp_WPSA>
0

> <r_qp_volume>
933.382

> <r_qp_donorHB>
1

> <r_qp_accptHB>
4

> <r_qp_dip^2/V>
0.0310603

> <r_qp_ACxDN^.5/SA>
0.00745116

> <r_qp_glob>
0.860403

> <r_qp_QPpolrz>
29.902

> <r_qp_QPlogPC16>
8.24314

> <r_qp_QPlogPoct>
13.3126

> <r_qp_QPlogPw>
10.2838

> <r_qp_QPlogPo/w>
2.27547

> <r_qp_QPlogS>
-2.60734

> <r_qp_CIQPlogS>
-3.01529

> <r_qp_QPlogHERG>
-2.73018

> <r_qp_QPPCaco>
554.132

> <r_qp_QPlogBB>
-0.454112

> <r_qp_QPPMDCK>
658.231

> <r_qp_QPlogKp>
-2.7122

> <r_qp_IP(eV)>
9.05965

> <r_qp_EA(eV)>
0.00728144

> <i_qp_#metab>
3

> <r_qp_QPlogKhsa>
-0.0530664

> <i_qp_HumanOralAbsorption>
3

> <r_qp_PercentHumanOralAbsorption>
89.3744

> <r_qp_SAfluorine>
0

> <r_qp_SAamideO>
46.6249

> <r_qp_PSA>
61.9759

> <i_qp_#NandO>
4

> <i_qp_RuleOfFive>
0

> <i_qp_RuleOfThree>
0

> <i_qp_#ringatoms>
16

> <i_qp_#in34>
0

> <i_qp_#in56>
16

> <i_qp_#noncon>
8

> <i_qp_#nonHatm>
20

> <r_qp_Jm>
1.31928

> <stars>
0

> <logP>
2.27547

> <Caco>
554.132

> <MDCK>
658.231

> <HumanOralAbsorption>
3

> <PercentHumanOralAbsorption>
89.3744

> <RuleOfFive>
0

> <base>
fda.sdf

$$$$
Cyproterone acetate.cdx_1
                    3D
 Schrodinger Suite 2022-3.
 58 62  0  0  1  0            999 V2000
   -3.9652  -11.0023   37.4870 C   0  0  0  0  0  0
   -6.0141   -8.6663   39.4698 C   0  0  0  0  0  0
   -5.0188  -10.2387   37.8382 C   0  0  0  0  0  0
   -5.1173   -9.6219   39.1707 C   0  0  0  0  0  0
   -3.7892  -11.5753   36.1328 C   0  0  0  0  0  0
   -9.5511   -3.8146   37.6262 C   0  0  0  0  0  0
   -7.1034   -2.5865   37.8353 C   0  0  0  0  0  0
   -7.5774   -5.9873   39.9518 C   0  0  0  0  0  0
   -7.6465   -7.9068   36.0186 C   0  0  0  0  0  0
   -8.1658   -4.6042   39.6020 C   0  0  0  0  0  0
   -7.9448   -6.4066   36.2152 C   0  0  0  0  0  0
   -4.6428   -9.6169   34.7097 C   0  0  0  0  0  0
   -7.0124   -8.1145   38.4888 C   0  0  2  0  0  0
   -4.6750  -11.0841   35.0620 C   0  0  2  0  0  0
   -6.5898   -8.4328   37.0232 C   0  0  1  0  0  0
   -7.2151   -6.5971   38.5996 C   0  0  1  0  0  0
   -5.8481  -10.2106   35.3936 C   0  0  1  0  0  0
   -6.1853   -9.9405   36.8578 C   0  0  1  0  0  0
   -8.3432   -4.5848   38.0669 C   0  0  1  0  0  0
   -8.3431   -6.0825   37.6661 C   0  0  1  0  0  0
   -9.8040   -3.7419   36.1445 C   0  0  0  0  0  0
   -5.7670   -2.3845   38.4829 C   0  0  0  0  0  0
   -7.3516  -10.8991   37.2231 C   0  0  0  0  0  0
   -9.7321   -6.7144   37.9672 C   0  0  0  0  0  0
   -2.9129  -12.3973   35.8952 O   0  0  0  0  0  0
  -10.3001   -3.2704   38.4361 O   0  0  0  0  0  0
   -7.9258   -1.6959   37.6691 O   0  0  0  0  0  0
   -7.2476   -3.8954   37.4715 O   0  0  0  0  0  0
   -4.0852  -10.1671   40.4651 Cl  0  0  0  0  0  0
   -3.1533  -11.2308   38.1695 H   0  0  0  0  0  0
   -6.0717   -8.2891   40.4883 H   0  0  0  0  0  0
   -6.7034   -5.8877   40.6038 H   0  0  0  0  0  0
   -8.3176   -6.5954   40.4835 H   0  0  0  0  0  0
   -8.5724   -8.4849   36.0992 H   0  0  0  0  0  0
   -7.2901   -8.0363   34.9907 H   0  0  0  0  0  0
   -9.1169   -4.4712   40.1304 H   0  0  0  0  0  0
   -7.4859   -3.8140   39.9406 H   0  0  0  0  0  0
   -7.0472   -5.8449   35.9286 H   0  0  0  0  0  0
   -8.7359   -6.0974   35.5217 H   0  0  0  0  0  0
   -3.9943   -8.9560   35.2712 H   0  0  0  0  0  0
   -4.7409   -9.3499   33.6639 H   0  0  0  0  0  0
   -7.9601   -8.6122   38.7215 H   0  0  0  0  0  0
   -4.8204  -11.7781   34.2390 H   0  0  0  0  0  0
   -5.6796   -7.8465   36.8118 H   0  0  0  0  0  0
   -6.2634   -6.1275   38.2998 H   0  0  0  0  0  0
   -6.7340  -10.3259   34.7758 H   0  0  0  0  0  0
  -10.4328   -4.5817   35.8361 H   0  0  0  0  0  0
   -8.8537   -3.7962   35.6077 H   0  0  0  0  0  0
  -10.3192   -2.8083   35.9062 H   0  0  0  0  0  0
   -5.8493   -2.5446   39.5608 H   0  0  0  0  0  0
   -5.3997   -1.3776   38.2695 H   0  0  0  0  0  0
   -5.0542   -3.1079   38.0764 H   0  0  0  0  0  0
   -8.1758  -10.7082   36.5515 H   0  0  0  0  0  0
   -7.6460  -10.7076   38.2446 H   0  0  0  0  0  0
   -7.0057  -11.9168   37.1151 H   0  0  0  0  0  0
   -9.9996   -6.4801   38.9865 H   0  0  0  0  0  0
   -9.6571   -7.7829   37.8319 H   0  0  0  0  0  0
  -10.4530   -6.2958   37.2812 H   0  0  0  0  0  0
  1  3  2  0  0  0
  1  5  1  0  0  0
  1 30  1  0  0  0
  2  4  2  0  0  0
  2 13  1  0  0  0
  2 31  1  0  0  0
  3  4  1  0  0  0
  3 18  1  0  0  0
  4 29  1  0  0  0
  5 14  1  0  0  0
  5 25  2  0  0  0
  6 19  1  0  0  0
  6 21  1  0  0  0
  6 26  2  0  0  0
  7 22  1  0  0  0
  7 27  2  0  0  0
  7 28  1  0  0  0
  8 10  1  0  0  0
  8 16  1  0  0  0
  8 32  1  0  0  0
  8 33  1  0  0  0
  9 11  1  0  0  0
  9 15  1  0  0  0
  9 34  1  0  0  0
  9 35  1  0  0  0
 10 19  1  0  0  0
 10 36  1  0  0  0
 10 37  1  0  0  0
 11 20  1  0  0  0
 11 38  1  0  0  0
 11 39  1  0  0  0
 12 14  1  0  0  0
 12 17  1  0  0  0
 12 40  1  0  0  0
 12 41  1  0  0  0
 13 15  1  0  0  0
 13 16  1  0  0  0
 13 42  1  0  0  0
 14 17  1  0  0  0
 14 43  1  0  0  0
 15 18  1  0  0  0
 15 44  1  0  0  0
 16 20  1  0  0  0
 16 45  1  0  0  0
 17 18  1  0  0  0
 17 46  1  0  0  0
 18 23  1  0  0  0
 19 20  1  0  0  0
 19 28  1  0  0  0
 20 24  1  0  0  0
 21 47  1  0  0  0
 21 48  1  0  0  0
 21 49  1  0  0  0
 22 50  1  0  0  0
 22 51  1  0  0  0
 22 52  1  0  0  0
 23 53  1  0  0  0
 23 54  1  0  0  0
 23 55  1  0  0  0
 24 56  1  0  0  0
 24 57  1  0  0  0
 24 58  1  0  0  0
M  END
> <EON_Query>
60c

> <EON_ET_pb>
0.148

> <EON_ET_coul>
0.134

> <EON_ET_combo>
0.652

> <EON_ShapeTanimoto>
0.504

> <ROCS_ShapeQuery>
60c

> <ROCS_TanimotoCombo>
0.832

> <ROCS_ShapeTanimoto>
0.54

> <ROCS_ColorTanimoto>
0.292

> <ROCS_RefTversky>
0.701

> <ROCS_RefColorTversky>
0.449

> <ROCS_RefTverskyCombo>
1.15

> <ROCS_FitTversky>
0.701

> <ROCS_FitColorTversky>
0.455

> <ROCS_FitTverskyCombo>
1.157

> <ROCS_ColorScore>
-4.49

> <ROCS_Overlap>
920.666

> <ROCS_Rank>
397

> <EON_Rank>
309

> <i_qp_#stars>
0

> <i_qp_#amine>
0

> <i_qp_#amidine>
0

> <i_qp_#acid>
0

> <i_qp_#amide>
0

> <i_qp_#rotor>
2

> <i_qp_#rtvFG>
2

> <i_qp_CNS>
0

> <r_qp_mol_MW>
416.944

> <r_qp_dipole>
1.9786

> <r_qp_SASA>
626.262

> <r_qp_FOSA>
413.165

> <r_qp_FISA>
121.225

> <r_qp_PISA>
28.9565

> <r_qp_WPSA>
62.9167

> <r_qp_volume>
1194.96

> <r_qp_donorHB>
0

> <r_qp_accptHB>
6

> <r_qp_dip^2/V>
0.00327614

> <r_qp_ACxDN^.5/SA>
0

> <r_qp_glob>
0.869584

> <r_qp_QPpolrz>
40.6607

> <r_qp_QPlogPC16>
10.8556

> <r_qp_QPlogPoct>
16.8713

> <r_qp_QPlogPw>
7.73866

> <r_qp_QPlogPo/w>
3.60397

> <r_qp_QPlogS>
-4.89193

> <r_qp_CIQPlogS>
-5.20124

> <r_qp_QPlogHERG>
-3.78036

> <r_qp_QPPCaco>
701.983

> <r_qp_QPlogBB>
-0.471436

> <r_qp_QPPMDCK>
746.285

> <r_qp_QPlogKp>
-3.45965

> <r_qp_IP(eV)>
9.58825

> <r_qp_EA(eV)>
0.892232

> <i_qp_#metab>
1

> <r_qp_QPlogKhsa>
0.397054

> <i_qp_HumanOralAbsorption>
3

> <r_qp_PercentHumanOralAbsorption>
100

> <r_qp_SAfluorine>
0

> <r_qp_SAamideO>
0

> <r_qp_PSA>
77.6255

> <i_qp_#NandO>
4

> <i_qp_RuleOfFive>
0

> <i_qp_RuleOfThree>
0

> <i_qp_#ringatoms>
18

> <i_qp_#in34>
3

> <i_qp_#in56>
15

> <i_qp_#noncon>
13

> <i_qp_#nonHatm>
29

> <r_qp_Jm>
0.0018557

> <stars>
0

> <logP>
3.60397

> <Caco>
701.983

> <MDCK>
746.285

> <HumanOralAbsorption>
3

> <PercentHumanOralAbsorption>
100.0

> <RuleOfFive>
0

> <base>
fda.sdf

$$$$
Terazosin hydrochloride.cdx_93
                    3D
 Schrodinger Suite 2022-3.
 53 56  0  0  1  0            999 V2000
   -7.4440   -4.2610   39.5992 C   0  0  0  0  0  0
   -8.4170   -5.4303   37.2749 C   0  0  0  0  0  0
   -7.2373   -5.6290   39.3502 C   0  0  0  0  0  0
   -7.7242   -6.2319   38.1790 C   0  0  0  0  0  0
   -8.1396   -3.4835   38.6785 C   0  0  0  0  0  0
   -8.6266   -4.0692   37.5154 C   0  0  0  0  0  0
   -6.5503   -6.4617   40.2290 C   0  0  0  0  0  0
   -6.8508   -8.2391   38.8605 C   0  0  0  0  0  0
   -4.2846  -12.1297   36.2888 C   0  0  0  0  0  0
   -3.9653  -13.1612   33.3084 C   0  0  0  0  0  0
   -5.0591  -12.3319   33.9379 C   0  0  0  0  0  0
   -7.1767  -10.1965   37.3662 C   0  0  0  0  0  0
   -5.5970  -10.3707   39.2427 C   0  0  0  0  0  0
   -6.0213  -10.3686   36.3765 C   0  0  0  0  0  0
   -4.4284  -10.5420   38.2721 C   0  0  0  0  0  0
   -4.1799  -14.5098   33.9564 C   0  0  0  0  0  0
   -5.1615  -12.9116   35.3339 C   0  0  1  0  0  0
   -7.8023   -1.6409   40.1437 C   0  0  0  0  0  0
   -9.7760   -4.0042   35.4344 C   0  0  0  0  0  0
   -7.5321   -7.5393   37.9307 N   0  0  0  0  0  0
   -6.3404   -7.7736   40.0119 N   0  0  0  0  0  0
   -6.6568   -9.5904   38.5977 N   0  0  0  0  0  0
   -4.8951  -11.0873   36.9860 N   0  0  0  0  0  0
   -6.0297   -5.9241   41.4323 N   0  0  0  0  0  0
   -3.0956  -12.4376   36.4051 O   0  0  0  0  0  0
   -4.6501  -14.2487   35.2852 O   0  0  0  0  0  0
   -8.3357   -2.1594   38.9262 O   0  0  0  0  0  0
   -9.3105   -3.3270   36.5999 O   0  0  0  0  0  0
   -7.0704   -3.7862   40.5035 H   0  0  0  0  0  0
   -8.8060   -5.8708   36.3581 H   0  0  0  0  0  0
   -4.0155  -13.1977   32.2172 H   0  0  0  0  0  0
   -2.9854  -12.7606   33.5937 H   0  0  0  0  0  0
   -4.8526  -11.2584   33.9080 H   0  0  0  0  0  0
   -6.0013  -12.5110   33.4071 H   0  0  0  0  0  0
   -7.9379   -9.5489   36.9347 H   0  0  0  0  0  0
   -7.6166  -11.1676   37.5805 H   0  0  0  0  0  0
   -6.0010  -11.3460   39.5194 H   0  0  0  0  0  0
   -5.2404   -9.8810   40.1508 H   0  0  0  0  0  0
   -6.3442  -10.9601   35.5189 H   0  0  0  0  0  0
   -5.6946   -9.3941   36.0214 H   0  0  0  0  0  0
   -3.9623   -9.5804   38.0551 H   0  0  0  0  0  0
   -3.6738  -11.1985   38.7011 H   0  0  0  0  0  0
   -4.9522  -15.0833   33.4325 H   0  0  0  0  0  0
   -3.2663  -15.1091   33.9983 H   0  0  0  0  0  0
   -6.1771  -12.8988   35.7206 H   0  0  0  0  0  0
   -8.0291   -0.5745   40.2166 H   0  0  0  0  0  0
   -6.7206   -1.7964   40.1640 H   0  0  0  0  0  0
   -8.2599   -2.1669   40.9847 H   0  0  0  0  0  0
  -10.3040   -3.2985   34.7884 H   0  0  0  0  0  0
  -10.4450   -4.8173   35.7271 H   0  0  0  0  0  0
   -8.9189   -4.4159   34.8964 H   0  0  0  0  0  0
   -6.1252   -4.9470   41.6040 H   0  0  0  0  0  0
   -5.4986   -6.5160   42.0335 H   0  0  0  0  0  0
  1  3  2  0  0  0
  1  5  1  0  0  0
  1 29  1  0  0  0
  2  4  2  0  0  0
  2  6  1  0  0  0
  2 30  1  0  0  0
  3  4  1  0  0  0
  3  7  1  0  0  0
  4 20  1  0  0  0
  5  6  2  0  0  0
  5 27  1  0  0  0
  6 28  1  0  0  0
  7 21  2  0  0  0
  7 24  1  0  0  0
  8 20  2  0  0  0
  8 21  1  0  0  0
  8 22  1  0  0  0
  9 17  1  0  0  0
  9 23  1  0  0  0
  9 25  2  0  0  0
 10 11  1  0  0  0
 10 16  1  0  0  0
 10 31  1  0  0  0
 10 32  1  0  0  0
 11 17  1  0  0  0
 11 33  1  0  0  0
 11 34  1  0  0  0
 12 14  1  0  0  0
 12 22  1  0  0  0
 12 35  1  0  0  0
 12 36  1  0  0  0
 13 15  1  0  0  0
 13 22  1  0  0  0
 13 37  1  0  0  0
 13 38  1  0  0  0
 14 23  1  0  0  0
 14 39  1  0  0  0
 14 40  1  0  0  0
 15 23  1  0  0  0
 15 41  1  0  0  0
 15 42  1  0  0  0
 16 26  1  0  0  0
 16 43  1  0  0  0
 16 44  1  0  0  0
 17 26  1  0  0  0
 17 45  1  0  0  0
 18 27  1  0  0  0
 18 46  1  0  0  0
 18 47  1  0  0  0
 18 48  1  0  0  0
 19 28  1  0  0  0
 19 49  1  0  0  0
 19 50  1  0  0  0
 19 51  1  0  0  0
 24 52  1  0  0  0
 24 53  1  0  0  0
M  END
> <EON_Query>
60c

> <EON_ET_pb>
0.086

> <EON_ET_coul>
0.078

> <EON_ET_combo>
0.652

> <EON_ShapeTanimoto>
0.566

> <ROCS_ShapeQuery>
60c

> <ROCS_TanimotoCombo>
0.85

> <ROCS_ShapeTanimoto>
0.604

> <ROCS_ColorTanimoto>
0.246

> <ROCS_RefTversky>
0.748

> <ROCS_RefColorTversky>
0.43

> <ROCS_RefTverskyCombo>
1.178

> <ROCS_FitTversky>
0.758

> <ROCS_FitColorTversky>
0.365

> <ROCS_FitTverskyCombo>
1.123

> <ROCS_ColorScore>
-4.347

> <ROCS_Overlap>
981.411

> <ROCS_Rank>
265

> <EON_Rank>
310

> <i_qp_#stars>
0

> <i_qp_#amine>
0

> <i_qp_#amidine>
0

> <i_qp_#acid>
0

> <i_qp_#amide>
1

> <i_qp_#rotor>
4

> <i_qp_#rtvFG>
0

> <i_qp_CNS>
-1

> <r_qp_mol_MW>
387.438

> <r_qp_dipole>
5.02366

> <r_qp_SASA>
643.665

> <r_qp_FOSA>
472.697

> <r_qp_FISA>
100.849

> <r_qp_PISA>
70.1181

> <r_qp_WPSA>
0

> <r_qp_volume>
1156.29

> <r_qp_donorHB>
2

> <r_qp_accptHB>
9.2

> <r_qp_dip^2/V>
0.021826

> <r_qp_ACxDN^.5/SA>
0.0202136

> <r_qp_glob>
0.827718

> <r_qp_QPpolrz>
38.2218

> <r_qp_QPlogPC16>
10.6146

> <r_qp_QPlogPoct>
20.3234

> <r_qp_QPlogPw>
15.5441

> <r_qp_QPlogPo/w>
1.41372

> <r_qp_QPlogS>
-3.26726

> <r_qp_CIQPlogS>
-3.54508

> <r_qp_QPlogHERG>
-3.27968

> <r_qp_QPPCaco>
666.746

> <r_qp_QPlogBB>
-0.658938

> <r_qp_QPPMDCK>
545.877

> <r_qp_QPlogKp>
-2.74711

> <r_qp_IP(eV)>
8.12117

> <r_qp_EA(eV)>
0.795018

> <i_qp_#metab>
4

> <r_qp_QPlogKhsa>
-0.470572

> <i_qp_HumanOralAbsorption>
3

> <r_qp_PercentHumanOralAbsorption>
85.7668

> <r_qp_SAfluorine>
0

> <r_qp_SAamideO>
27.0836

> <r_qp_PSA>
99.4341

> <i_qp_#NandO>
9

> <i_qp_RuleOfFive>
0

> <i_qp_RuleOfThree>
0

> <i_qp_#ringatoms>
21

> <i_qp_#in34>
0

> <i_qp_#in56>
21

> <i_qp_#noncon>
8

> <i_qp_#nonHatm>
28

> <r_qp_Jm>
0.37483

> <stars>
0

> <logP>
1.41372

> <Caco>
666.746

> <MDCK>
545.877

> <HumanOralAbsorption>
3

> <PercentHumanOralAbsorption>
85.7668

> <RuleOfFive>
0

> <base>
fda.sdf

$$$$
S4679 Terazosin.cdx_93
                    3D
 Schrodinger Suite 2022-3.
 53 56  0  0  1  0            999 V2000
   -7.4440   -4.2610   39.5992 C   0  0  0  0  0  0
   -8.4170   -5.4303   37.2749 C   0  0  0  0  0  0
   -7.2373   -5.6290   39.3502 C   0  0  0  0  0  0
   -7.7242   -6.2319   38.1790 C   0  0  0  0  0  0
   -8.1396   -3.4835   38.6785 C   0  0  0  0  0  0
   -8.6266   -4.0692   37.5154 C   0  0  0  0  0  0
   -6.5503   -6.4617   40.2290 C   0  0  0  0  0  0
   -6.8508   -8.2391   38.8605 C   0  0  0  0  0  0
   -4.2846  -12.1297   36.2888 C   0  0  0  0  0  0
   -3.9653  -13.1612   33.3084 C   0  0  0  0  0  0
   -5.0591  -12.3319   33.9379 C   0  0  0  0  0  0
   -7.1767  -10.1965   37.3662 C   0  0  0  0  0  0
   -5.5970  -10.3707   39.2427 C   0  0  0  0  0  0
   -6.0213  -10.3686   36.3765 C   0  0  0  0  0  0
   -4.4284  -10.5420   38.2721 C   0  0  0  0  0  0
   -4.1799  -14.5098   33.9564 C   0  0  0  0  0  0
   -5.1615  -12.9116   35.3339 C   0  0  1  0  0  0
   -7.8023   -1.6409   40.1437 C   0  0  0  0  0  0
   -9.7760   -4.0042   35.4344 C   0  0  0  0  0  0
   -7.5321   -7.5393   37.9307 N   0  0  0  0  0  0
   -6.3404   -7.7736   40.0119 N   0  0  0  0  0  0
   -6.6568   -9.5904   38.5977 N   0  0  0  0  0  0
   -4.8951  -11.0873   36.9860 N   0  0  0  0  0  0
   -6.0297   -5.9241   41.4323 N   0  0  0  0  0  0
   -3.0956  -12.4376   36.4051 O   0  0  0  0  0  0
   -4.6501  -14.2487   35.2852 O   0  0  0  0  0  0
   -8.3357   -2.1594   38.9262 O   0  0  0  0  0  0
   -9.3105   -3.3270   36.5999 O   0  0  0  0  0  0
   -7.0704   -3.7862   40.5035 H   0  0  0  0  0  0
   -8.8060   -5.8708   36.3581 H   0  0  0  0  0  0
   -4.0155  -13.1977   32.2172 H   0  0  0  0  0  0
   -2.9854  -12.7606   33.5937 H   0  0  0  0  0  0
   -4.8526  -11.2584   33.9080 H   0  0  0  0  0  0
   -6.0013  -12.5110   33.4071 H   0  0  0  0  0  0
   -7.9379   -9.5489   36.9347 H   0  0  0  0  0  0
   -7.6166  -11.1676   37.5805 H   0  0  0  0  0  0
   -6.0010  -11.3460   39.5194 H   0  0  0  0  0  0
   -5.2404   -9.8810   40.1508 H   0  0  0  0  0  0
   -6.3442  -10.9601   35.5189 H   0  0  0  0  0  0
   -5.6946   -9.3941   36.0214 H   0  0  0  0  0  0
   -3.9623   -9.5804   38.0551 H   0  0  0  0  0  0
   -3.6738  -11.1985   38.7011 H   0  0  0  0  0  0
   -4.9522  -15.0833   33.4325 H   0  0  0  0  0  0
   -3.2663  -15.1091   33.9983 H   0  0  0  0  0  0
   -6.1771  -12.8988   35.7206 H   0  0  0  0  0  0
   -8.0291   -0.5745   40.2166 H   0  0  0  0  0  0
   -6.7206   -1.7964   40.1640 H   0  0  0  0  0  0
   -8.2599   -2.1669   40.9847 H   0  0  0  0  0  0
  -10.3040   -3.2985   34.7884 H   0  0  0  0  0  0
  -10.4450   -4.8173   35.7271 H   0  0  0  0  0  0
   -8.9189   -4.4159   34.8964 H   0  0  0  0  0  0
   -6.1252   -4.9470   41.6040 H   0  0  0  0  0  0
   -5.4986   -6.5160   42.0335 H   0  0  0  0  0  0
  1  3  2  0  0  0
  1  5  1  0  0  0
  1 29  1  0  0  0
  2  4  2  0  0  0
  2  6  1  0  0  0
  2 30  1  0  0  0
  3  4  1  0  0  0
  3  7  1  0  0  0
  4 20  1  0  0  0
  5  6  2  0  0  0
  5 27  1  0  0  0
  6 28  1  0  0  0
  7 21  2  0  0  0
  7 24  1  0  0  0
  8 20  2  0  0  0
  8 21  1  0  0  0
  8 22  1  0  0  0
  9 17  1  0  0  0
  9 23  1  0  0  0
  9 25  2  0  0  0
 10 11  1  0  0  0
 10 16  1  0  0  0
 10 31  1  0  0  0
 10 32  1  0  0  0
 11 17  1  0  0  0
 11 33  1  0  0  0
 11 34  1  0  0  0
 12 14  1  0  0  0
 12 22  1  0  0  0
 12 35  1  0  0  0
 12 36  1  0  0  0
 13 15  1  0  0  0
 13 22  1  0  0  0
 13 37  1  0  0  0
 13 38  1  0  0  0
 14 23  1  0  0  0
 14 39  1  0  0  0
 14 40  1  0  0  0
 15 23  1  0  0  0
 15 41  1  0  0  0
 15 42  1  0  0  0
 16 26  1  0  0  0
 16 43  1  0  0  0
 16 44  1  0  0  0
 17 26  1  0  0  0
 17 45  1  0  0  0
 18 27  1  0  0  0
 18 46  1  0  0  0
 18 47  1  0  0  0
 18 48  1  0  0  0
 19 28  1  0  0  0
 19 49  1  0  0  0
 19 50  1  0  0  0
 19 51  1  0  0  0
 24 52  1  0  0  0
 24 53  1  0  0  0
M  END
> <EON_Query>
60c

> <EON_ET_pb>
0.086

> <EON_ET_coul>
0.078

> <EON_ET_combo>
0.652

> <EON_ShapeTanimoto>
0.566

> <ROCS_ShapeQuery>
60c

> <ROCS_TanimotoCombo>
0.85

> <ROCS_ShapeTanimoto>
0.604

> <ROCS_ColorTanimoto>
0.246

> <ROCS_RefTversky>
0.748

> <ROCS_RefColorTversky>
0.43

> <ROCS_RefTverskyCombo>
1.178

> <ROCS_FitTversky>
0.758

> <ROCS_FitColorTversky>
0.365

> <ROCS_FitTverskyCombo>
1.123

> <ROCS_ColorScore>
-4.347

> <ROCS_Overlap>
981.411

> <ROCS_Rank>
266

> <EON_Rank>
311

> <i_qp_#stars>
0

> <i_qp_#amine>
0

> <i_qp_#amidine>
0

> <i_qp_#acid>
0

> <i_qp_#amide>
1

> <i_qp_#rotor>
4

> <i_qp_#rtvFG>
0

> <i_qp_CNS>
-1

> <r_qp_mol_MW>
387.438

> <r_qp_dipole>
5.02366

> <r_qp_SASA>
643.665

> <r_qp_FOSA>
472.697

> <r_qp_FISA>
100.849

> <r_qp_PISA>
70.1181

> <r_qp_WPSA>
0

> <r_qp_volume>
1156.29

> <r_qp_donorHB>
2

> <r_qp_accptHB>
9.2

> <r_qp_dip^2/V>
0.021826

> <r_qp_ACxDN^.5/SA>
0.0202136

> <r_qp_glob>
0.827718

> <r_qp_QPpolrz>
38.2218

> <r_qp_QPlogPC16>
10.6146

> <r_qp_QPlogPoct>
20.3234

> <r_qp_QPlogPw>
15.5441

> <r_qp_QPlogPo/w>
1.41372

> <r_qp_QPlogS>
-3.26726

> <r_qp_CIQPlogS>
-3.54508

> <r_qp_QPlogHERG>
-3.27968

> <r_qp_QPPCaco>
666.746

> <r_qp_QPlogBB>
-0.658938

> <r_qp_QPPMDCK>
545.877

> <r_qp_QPlogKp>
-2.74711

> <r_qp_IP(eV)>
8.12117

> <r_qp_EA(eV)>
0.795018

> <i_qp_#metab>
4

> <r_qp_QPlogKhsa>
-0.470572

> <i_qp_HumanOralAbsorption>
3

> <r_qp_PercentHumanOralAbsorption>
85.7668

> <r_qp_SAfluorine>
0

> <r_qp_SAamideO>
27.0836

> <r_qp_PSA>
99.4341

> <i_qp_#NandO>
9

> <i_qp_RuleOfFive>
0

> <i_qp_RuleOfThree>
0

> <i_qp_#ringatoms>
21

> <i_qp_#in34>
0

> <i_qp_#in56>
21

> <i_qp_#noncon>
8

> <i_qp_#nonHatm>
28

> <r_qp_Jm>
0.37483

> <stars>
0

> <logP>
1.41372

> <Caco>
666.746

> <MDCK>
545.877

> <HumanOralAbsorption>
3

> <PercentHumanOralAbsorption>
85.7668

> <RuleOfFive>
0

> <base>
fda.sdf

$$$$
Molecule_93
                    3D
 Schrodinger Suite 2022-3.
 53 56  0  0  1  0            999 V2000
   -7.4440   -4.2610   39.5992 C   0  0  0  0  0  0
   -8.4170   -5.4303   37.2749 C   0  0  0  0  0  0
   -7.2373   -5.6290   39.3502 C   0  0  0  0  0  0
   -7.7242   -6.2319   38.1790 C   0  0  0  0  0  0
   -8.1396   -3.4835   38.6785 C   0  0  0  0  0  0
   -8.6266   -4.0692   37.5154 C   0  0  0  0  0  0
   -6.5503   -6.4617   40.2290 C   0  0  0  0  0  0
   -6.8508   -8.2391   38.8605 C   0  0  0  0  0  0
   -4.2846  -12.1297   36.2888 C   0  0  0  0  0  0
   -3.9653  -13.1612   33.3084 C   0  0  0  0  0  0
   -5.0591  -12.3319   33.9379 C   0  0  0  0  0  0
   -7.1767  -10.1965   37.3662 C   0  0  0  0  0  0
   -5.5970  -10.3707   39.2427 C   0  0  0  0  0  0
   -6.0213  -10.3686   36.3765 C   0  0  0  0  0  0
   -4.4284  -10.5420   38.2721 C   0  0  0  0  0  0
   -4.1799  -14.5098   33.9564 C   0  0  0  0  0  0
   -5.1615  -12.9116   35.3339 C   0  0  1  0  0  0
   -7.8023   -1.6409   40.1437 C   0  0  0  0  0  0
   -9.7760   -4.0042   35.4344 C   0  0  0  0  0  0
   -7.5321   -7.5393   37.9307 N   0  0  0  0  0  0
   -6.3404   -7.7736   40.0119 N   0  0  0  0  0  0
   -6.6568   -9.5904   38.5977 N   0  0  0  0  0  0
   -4.8951  -11.0873   36.9860 N   0  0  0  0  0  0
   -6.0297   -5.9241   41.4323 N   0  0  0  0  0  0
   -3.0956  -12.4376   36.4051 O   0  0  0  0  0  0
   -4.6501  -14.2487   35.2852 O   0  0  0  0  0  0
   -8.3357   -2.1594   38.9262 O   0  0  0  0  0  0
   -9.3105   -3.3270   36.5999 O   0  0  0  0  0  0
   -7.0704   -3.7862   40.5035 H   0  0  0  0  0  0
   -8.8060   -5.8708   36.3581 H   0  0  0  0  0  0
   -4.0155  -13.1977   32.2172 H   0  0  0  0  0  0
   -2.9854  -12.7606   33.5937 H   0  0  0  0  0  0
   -4.8526  -11.2584   33.9080 H   0  0  0  0  0  0
   -6.0013  -12.5110   33.4071 H   0  0  0  0  0  0
   -7.9379   -9.5489   36.9347 H   0  0  0  0  0  0
   -7.6166  -11.1676   37.5805 H   0  0  0  0  0  0
   -6.0010  -11.3460   39.5194 H   0  0  0  0  0  0
   -5.2404   -9.8810   40.1508 H   0  0  0  0  0  0
   -6.3442  -10.9601   35.5189 H   0  0  0  0  0  0
   -5.6946   -9.3941   36.0214 H   0  0  0  0  0  0
   -3.9623   -9.5804   38.0551 H   0  0  0  0  0  0
   -3.6738  -11.1985   38.7011 H   0  0  0  0  0  0
   -4.9522  -15.0833   33.4325 H   0  0  0  0  0  0
   -3.2663  -15.1091   33.9983 H   0  0  0  0  0  0
   -6.1771  -12.8988   35.7206 H   0  0  0  0  0  0
   -8.0291   -0.5745   40.2166 H   0  0  0  0  0  0
   -6.7206   -1.7964   40.1640 H   0  0  0  0  0  0
   -8.2599   -2.1669   40.9847 H   0  0  0  0  0  0
  -10.3040   -3.2985   34.7884 H   0  0  0  0  0  0
  -10.4450   -4.8173   35.7271 H   0  0  0  0  0  0
   -8.9189   -4.4159   34.8964 H   0  0  0  0  0  0
   -6.1252   -4.9470   41.6040 H   0  0  0  0  0  0
   -5.4986   -6.5160   42.0335 H   0  0  0  0  0  0
  1  3  2  0  0  0
  1  5  1  0  0  0
  1 29  1  0  0  0
  2  4  2  0  0  0
  2  6  1  0  0  0
  2 30  1  0  0  0
  3  4  1  0  0  0
  3  7  1  0  0  0
  4 20  1  0  0  0
  5  6  2  0  0  0
  5 27  1  0  0  0
  6 28  1  0  0  0
  7 21  2  0  0  0
  7 24  1  0  0  0
  8 20  2  0  0  0
  8 21  1  0  0  0
  8 22  1  0  0  0
  9 17  1  0  0  0
  9 23  1  0  0  0
  9 25  2  0  0  0
 10 11  1  0  0  0
 10 16  1  0  0  0
 10 31  1  0  0  0
 10 32  1  0  0  0
 11 17  1  0  0  0
 11 33  1  0  0  0
 11 34  1  0  0  0
 12 14  1  0  0  0
 12 22  1  0  0  0
 12 35  1  0  0  0
 12 36  1  0  0  0
 13 15  1  0  0  0
 13 22  1  0  0  0
 13 37  1  0  0  0
 13 38  1  0  0  0
 14 23  1  0  0  0
 14 39  1  0  0  0
 14 40  1  0  0  0
 15 23  1  0  0  0
 15 41  1  0  0  0
 15 42  1  0  0  0
 16 26  1  0  0  0
 16 43  1  0  0  0
 16 44  1  0  0  0
 17 26  1  0  0  0
 17 45  1  0  0  0
 18 27  1  0  0  0
 18 46  1  0  0  0
 18 47  1  0  0  0
 18 48  1  0  0  0
 19 28  1  0  0  0
 19 49  1  0  0  0
 19 50  1  0  0  0
 19 51  1  0  0  0
 24 52  1  0  0  0
 24 53  1  0  0  0
M  END
> <EON_Query>
60c

> <EON_ET_pb>
0.086

> <EON_ET_coul>
0.078

> <EON_ET_combo>
0.652

> <EON_ShapeTanimoto>
0.566

> <ROCS_ShapeQuery>
60c

> <ROCS_TanimotoCombo>
0.85

> <ROCS_ShapeTanimoto>
0.604

> <ROCS_ColorTanimoto>
0.246

> <ROCS_RefTversky>
0.748

> <ROCS_RefColorTversky>
0.43

> <ROCS_RefTverskyCombo>
1.178

> <ROCS_FitTversky>
0.758

> <ROCS_FitColorTversky>
0.365

> <ROCS_FitTverskyCombo>
1.123

> <ROCS_ColorScore>
-4.347

> <ROCS_Overlap>
981.411

> <ROCS_Rank>
264

> <EON_Rank>
312

> <i_qp_#stars>
0

> <i_qp_#amine>
0

> <i_qp_#amidine>
0

> <i_qp_#acid>
0

> <i_qp_#amide>
1

> <i_qp_#rotor>
4

> <i_qp_#rtvFG>
0

> <i_qp_CNS>
-1

> <r_qp_mol_MW>
387.438

> <r_qp_dipole>
5.02366

> <r_qp_SASA>
643.665

> <r_qp_FOSA>
472.697

> <r_qp_FISA>
100.849

> <r_qp_PISA>
70.1181

> <r_qp_WPSA>
0

> <r_qp_volume>
1156.29

> <r_qp_donorHB>
2

> <r_qp_accptHB>
9.2

> <r_qp_dip^2/V>
0.021826

> <r_qp_ACxDN^.5/SA>
0.0202136

> <r_qp_glob>
0.827718

> <r_qp_QPpolrz>
38.2218

> <r_qp_QPlogPC16>
10.6146

> <r_qp_QPlogPoct>
20.3234

> <r_qp_QPlogPw>
15.5441

> <r_qp_QPlogPo/w>
1.41372

> <r_qp_QPlogS>
-3.26726

> <r_qp_CIQPlogS>
-3.54508

> <r_qp_QPlogHERG>
-3.27968

> <r_qp_QPPCaco>
666.746

> <r_qp_QPlogBB>
-0.658938

> <r_qp_QPPMDCK>
545.877

> <r_qp_QPlogKp>
-2.74711

> <r_qp_IP(eV)>
8.12117

> <r_qp_EA(eV)>
0.795018

> <i_qp_#metab>
4

> <r_qp_QPlogKhsa>
-0.470572

> <i_qp_HumanOralAbsorption>
3

> <r_qp_PercentHumanOralAbsorption>
85.7668

> <r_qp_SAfluorine>
0

> <r_qp_SAamideO>
27.0836

> <r_qp_PSA>
99.4341

> <i_qp_#NandO>
9

> <i_qp_RuleOfFive>
0

> <i_qp_RuleOfThree>
0

> <i_qp_#ringatoms>
21

> <i_qp_#in34>
0

> <i_qp_#in56>
21

> <i_qp_#noncon>
8

> <i_qp_#nonHatm>
28

> <r_qp_Jm>
0.37483

> <stars>
0

> <logP>
1.41372

> <Caco>
666.746

> <MDCK>
545.877

> <HumanOralAbsorption>
3

> <PercentHumanOralAbsorption>
85.7668

> <RuleOfFive>
0

> <base>
fda.sdf

$$$$
S3751 Quinidine sulfate.cdx_9
                    3D
 Schrodinger Suite 2022-3.
 49 52  0  0  1  0            999 V2000
   -7.8018   -5.0104   39.6957 C   0  0  0  0  0  0
   -8.6132   -5.0703   38.5599 C   0  0  0  0  0  0
   -5.4399   -8.2431   40.8098 C   0  0  0  0  0  0
   -7.8522   -7.3123   38.1463 C   0  0  0  0  0  0
   -5.4762   -7.0612   41.5216 C   0  0  0  0  0  0
   -7.0362   -7.2519   39.2888 C   0  0  0  0  0  0
   -6.2346   -8.3341   39.6763 C   0  0  0  0  0  0
   -7.0055   -6.0853   40.0813 C   0  0  0  0  0  0
   -8.6386   -6.2225   37.7840 C   0  0  0  0  0  0
   -2.4647  -13.3901   37.7555 C   0  0  0  0  0  0
   -3.3068  -12.3529   37.8151 C   0  0  0  0  0  0
   -4.3854   -9.9970   34.9619 C   0  0  0  0  0  0
   -4.1467   -9.4040   37.3736 C   0  0  0  0  0  0
   -5.8985  -10.1680   35.1127 C   0  0  0  0  0  0
   -5.5859  -11.8972   36.8693 C   0  0  0  0  0  0
   -4.0676  -11.8208   36.6371 C   0  0  1  0  0  0
   -3.6649  -10.3711   36.2724 C   0  0  1  0  0  0
   -5.6791   -9.4338   37.4776 C   0  0  2  0  0  0
   -9.4029   -7.4998   35.9291 C   0  0  0  0  0  0
   -6.1954   -9.6268   38.8969 C   0  0  1  0  0  0
   -6.2351   -5.9942   41.1818 N   0  0  0  0  0  0
   -6.1911  -10.5373   36.5578 N   0  3  1  0  0  0
   -5.3351  -10.5370   39.5790 O   0  0  0  0  0  0
   -9.4276   -6.2848   36.6778 O   0  0  0  0  0  0
   -7.8004   -4.0964   40.2868 H   0  0  0  0  0  0
   -9.2210   -4.2112   38.2894 H   0  0  0  0  0  0
   -4.8096   -9.0642   41.1334 H   0  0  0  0  0  0
   -7.8864   -8.2049   37.5254 H   0  0  0  0  0  0
   -4.8766   -6.9325   42.4167 H   0  0  0  0  0  0
   -1.9442  -13.7267   38.6454 H   0  0  0  0  0  0
   -2.2800  -13.9187   36.8268 H   0  0  0  0  0  0
   -3.4587  -11.8556   38.7690 H   0  0  0  0  0  0
   -4.0253  -10.6211   34.1353 H   0  0  0  0  0  0
   -4.1560   -8.9600   34.6873 H   0  0  0  0  0  0
   -3.6776   -9.6488   38.3336 H   0  0  0  0  0  0
   -3.8236   -8.3826   37.1348 H   0  0  0  0  0  0
   -6.4452   -9.2464   34.8877 H   0  0  0  0  0  0
   -6.2899  -10.9734   34.4822 H   0  0  0  0  0  0
   -6.0575  -12.6154   36.1887 H   0  0  0  0  0  0
   -5.8765  -12.1641   37.8897 H   0  0  0  0  0  0
   -3.8158  -12.4749   35.7916 H   0  0  0  0  0  0
   -2.5802  -10.2833   36.1414 H   0  0  0  0  0  0
   -6.1007   -8.4994   37.0864 H   0  0  0  0  0  0
  -10.0768   -7.4149   35.0732 H   0  0  0  0  0  0
   -9.7125   -8.3297   36.5694 H   0  0  0  0  0  0
   -8.3854   -7.6770   35.5728 H   0  0  0  0  0  0
   -7.1882  -10.0899   38.8519 H   0  0  0  0  0  0
   -5.7153  -10.6666   40.4613 H   0  0  0  0  0  0
   -7.1826  -10.6025   36.6700 H   0  0  0  0  0  0
  1  2  2  0  0  0
  1  8  1  0  0  0
  1 25  1  0  0  0
  2  9  1  0  0  0
  2 26  1  0  0  0
  3  5  2  0  0  0
  3  7  1  0  0  0
  3 27  1  0  0  0
  4  6  1  0  0  0
  4  9  2  0  0  0
  4 28  1  0  0  0
  5 21  1  0  0  0
  5 29  1  0  0  0
  6  7  2  0  0  0
  6  8  1  0  0  0
  7 20  1  0  0  0
  8 21  2  0  0  0
  9 24  1  0  0  0
 10 11  2  0  0  0
 10 30  1  0  0  0
 10 31  1  0  0  0
 11 16  1  0  0  0
 11 32  1  0  0  0
 12 14  1  0  0  0
 12 17  1  0  0  0
 12 33  1  0  0  0
 12 34  1  0  0  0
 13 17  1  0  0  0
 13 18  1  0  0  0
 13 35  1  0  0  0
 13 36  1  0  0  0
 14 22  1  0  0  0
 14 37  1  0  0  0
 14 38  1  0  0  0
 15 16  1  0  0  0
 15 22  1  0  0  0
 15 39  1  0  0  0
 15 40  1  0  0  0
 16 17  1  0  0  0
 16 41  1  0  0  0
 17 42  1  0  0  0
 18 20  1  0  0  0
 18 22  1  0  0  0
 18 43  1  0  0  0
 19 24  1  0  0  0
 19 44  1  0  0  0
 19 45  1  0  0  0
 19 46  1  0  0  0
 20 23  1  0  0  0
 20 47  1  0  0  0
 22 49  1  0  0  0
 23 48  1  0  0  0
M  CHG  1  22   1
M  END
> <EON_Query>
60c

> <EON_ET_pb>
0.153

> <EON_ET_coul>
0.11

> <EON_ET_combo>
0.65

> <EON_ShapeTanimoto>
0.497

> <ROCS_ShapeQuery>
60c

> <ROCS_TanimotoCombo>
0.802

> <ROCS_ShapeTanimoto>
0.591

> <ROCS_ColorTanimoto>
0.21

> <ROCS_RefTversky>
0.687

> <ROCS_RefColorTversky>
0.424

> <ROCS_RefTverskyCombo>
1.111

> <ROCS_FitTversky>
0.81

> <ROCS_FitColorTversky>
0.295

> <ROCS_FitTverskyCombo>
1.105

> <ROCS_ColorScore>
-4.346

> <ROCS_Overlap>
894.021

> <ROCS_Rank>
622

> <EON_Rank>
325

> <i_qp_#stars>
0

> <i_qp_#amine>
1

> <i_qp_#amidine>
0

> <i_qp_#acid>
0

> <i_qp_#amide>
0

> <i_qp_#rotor>
5

> <i_qp_#rtvFG>
0

> <i_qp_CNS>
1

> <r_qp_mol_MW>
324.422

> <r_qp_dipole>
2.18799

> <r_qp_SASA>
547.482

> <r_qp_FOSA>
301.589

> <r_qp_FISA>
30.7426

> <r_qp_PISA>
215.15

> <r_qp_WPSA>
0

> <r_qp_volume>
1023.03

> <r_qp_donorHB>
1

> <r_qp_accptHB>
5.45

> <r_qp_dip^2/V>
0.00467952

> <r_qp_ACxDN^.5/SA>
0.00995467

> <r_qp_glob>
0.896855

> <r_qp_QPpolrz>
33.632

> <r_qp_QPlogPC16>
9.86003

> <r_qp_QPlogPoct>
15.0466

> <r_qp_QPlogPw>
8.43909

> <r_qp_QPlogPo/w>
3.43535

> <r_qp_QPlogS>
-3.21001

> <r_qp_CIQPlogS>
-3.21812

> <r_qp_QPlogHERG>
-4.95321

> <r_qp_QPPCaco>
1262.61

> <r_qp_QPlogBB>
0.405864

> <r_qp_QPPMDCK>
704.188

> <r_qp_QPlogKp>
-2.91073

> <r_qp_IP(eV)>
8.86775

> <r_qp_EA(eV)>
1.00783

> <i_qp_#metab>
4

> <r_qp_QPlogKhsa>
0.164724

> <i_qp_HumanOralAbsorption>
3

> <r_qp_PercentHumanOralAbsorption>
100

> <r_qp_SAfluorine>
0

> <r_qp_SAamideO>
0

> <r_qp_PSA>
38.4585

> <i_qp_#NandO>
4

> <i_qp_RuleOfFive>
0

> <i_qp_RuleOfThree>
0

> <i_qp_#ringatoms>
18

> <i_qp_#in34>
0

> <i_qp_#in56>
18

> <i_qp_#noncon>
7

> <i_qp_#nonHatm>
24

> <r_qp_Jm>
2.00474

> <stars>
0

> <logP>
3.43535

> <Caco>
1262.61

> <MDCK>
704.188

> <HumanOralAbsorption>
3

> <PercentHumanOralAbsorption>
100.0

> <RuleOfFive>
0

> <base>
fda.sdf

$$$$
BindingDB_50121975_9
                    3D
 Schrodinger Suite 2022-3.
 49 52  0  0  1  0            999 V2000
   -7.8018   -5.0104   39.6957 C   0  0  0  0  0  0
   -8.6132   -5.0703   38.5599 C   0  0  0  0  0  0
   -5.4399   -8.2431   40.8098 C   0  0  0  0  0  0
   -7.8522   -7.3123   38.1463 C   0  0  0  0  0  0
   -5.4762   -7.0612   41.5216 C   0  0  0  0  0  0
   -7.0362   -7.2519   39.2888 C   0  0  0  0  0  0
   -6.2346   -8.3341   39.6763 C   0  0  0  0  0  0
   -7.0055   -6.0853   40.0813 C   0  0  0  0  0  0
   -8.6386   -6.2225   37.7840 C   0  0  0  0  0  0
   -2.4647  -13.3901   37.7555 C   0  0  0  0  0  0
   -3.3068  -12.3529   37.8151 C   0  0  0  0  0  0
   -4.3854   -9.9970   34.9619 C   0  0  0  0  0  0
   -4.1467   -9.4040   37.3736 C   0  0  0  0  0  0
   -5.8985  -10.1680   35.1127 C   0  0  0  0  0  0
   -5.5859  -11.8972   36.8693 C   0  0  0  0  0  0
   -4.0676  -11.8208   36.6371 C   0  0  1  0  0  0
   -3.6649  -10.3711   36.2724 C   0  0  1  0  0  0
   -5.6791   -9.4338   37.4776 C   0  0  2  0  0  0
   -9.4029   -7.4998   35.9291 C   0  0  0  0  0  0
   -6.1954   -9.6268   38.8969 C   0  0  1  0  0  0
   -6.2351   -5.9942   41.1818 N   0  0  0  0  0  0
   -6.1911  -10.5373   36.5578 N   0  3  1  0  0  0
   -5.3351  -10.5370   39.5790 O   0  0  0  0  0  0
   -9.4276   -6.2848   36.6778 O   0  0  0  0  0  0
   -7.8004   -4.0964   40.2868 H   0  0  0  0  0  0
   -9.2210   -4.2112   38.2894 H   0  0  0  0  0  0
   -4.8096   -9.0642   41.1334 H   0  0  0  0  0  0
   -7.8864   -8.2049   37.5254 H   0  0  0  0  0  0
   -4.8766   -6.9325   42.4167 H   0  0  0  0  0  0
   -1.9442  -13.7267   38.6454 H   0  0  0  0  0  0
   -2.2800  -13.9187   36.8268 H   0  0  0  0  0  0
   -3.4587  -11.8556   38.7690 H   0  0  0  0  0  0
   -4.0253  -10.6211   34.1353 H   0  0  0  0  0  0
   -4.1560   -8.9600   34.6873 H   0  0  0  0  0  0
   -3.6776   -9.6488   38.3336 H   0  0  0  0  0  0
   -3.8236   -8.3826   37.1348 H   0  0  0  0  0  0
   -6.4452   -9.2464   34.8877 H   0  0  0  0  0  0
   -6.2899  -10.9734   34.4822 H   0  0  0  0  0  0
   -6.0575  -12.6154   36.1887 H   0  0  0  0  0  0
   -5.8765  -12.1641   37.8897 H   0  0  0  0  0  0
   -3.8158  -12.4749   35.7916 H   0  0  0  0  0  0
   -2.5802  -10.2833   36.1414 H   0  0  0  0  0  0
   -6.1007   -8.4994   37.0864 H   0  0  0  0  0  0
  -10.0768   -7.4149   35.0732 H   0  0  0  0  0  0
   -9.7125   -8.3297   36.5694 H   0  0  0  0  0  0
   -8.3854   -7.6770   35.5728 H   0  0  0  0  0  0
   -7.1882  -10.0899   38.8519 H   0  0  0  0  0  0
   -5.7153  -10.6666   40.4613 H   0  0  0  0  0  0
   -7.1826  -10.6025   36.6700 H   0  0  0  0  0  0
  1  2  2  0  0  0
  1  8  1  0  0  0
  1 25  1  0  0  0
  2  9  1  0  0  0
  2 26  1  0  0  0
  3  5  2  0  0  0
  3  7  1  0  0  0
  3 27  1  0  0  0
  4  6  1  0  0  0
  4  9  2  0  0  0
  4 28  1  0  0  0
  5 21  1  0  0  0
  5 29  1  0  0  0
  6  7  2  0  0  0
  6  8  1  0  0  0
  7 20  1  0  0  0
  8 21  2  0  0  0
  9 24  1  0  0  0
 10 11  2  0  0  0
 10 30  1  0  0  0
 10 31  1  0  0  0
 11 16  1  0  0  0
 11 32  1  0  0  0
 12 14  1  0  0  0
 12 17  1  0  0  0
 12 33  1  0  0  0
 12 34  1  0  0  0
 13 17  1  0  0  0
 13 18  1  0  0  0
 13 35  1  0  0  0
 13 36  1  0  0  0
 14 22  1  0  0  0
 14 37  1  0  0  0
 14 38  1  0  0  0
 15 16  1  0  0  0
 15 22  1  0  0  0
 15 39  1  0  0  0
 15 40  1  0  0  0
 16 17  1  0  0  0
 16 41  1  0  0  0
 17 42  1  0  0  0
 18 20  1  0  0  0
 18 22  1  0  0  0
 18 43  1  0  0  0
 19 24  1  0  0  0
 19 44  1  0  0  0
 19 45  1  0  0  0
 19 46  1  0  0  0
 20 23  1  0  0  0
 20 47  1  0  0  0
 22 49  1  0  0  0
 23 48  1  0  0  0
M  CHG  1  22   1
M  END
> <EON_Query>
60c

> <EON_ET_pb>
0.153

> <EON_ET_coul>
0.11

> <EON_ET_combo>
0.65

> <EON_ShapeTanimoto>
0.497

> <ROCS_ShapeQuery>
60c

> <ROCS_TanimotoCombo>
0.802

> <ROCS_ShapeTanimoto>
0.591

> <ROCS_ColorTanimoto>
0.21

> <ROCS_RefTversky>
0.687

> <ROCS_RefColorTversky>
0.424

> <ROCS_RefTverskyCombo>
1.111

> <ROCS_FitTversky>
0.81

> <ROCS_FitColorTversky>
0.295

> <ROCS_FitTverskyCombo>
1.105

> <ROCS_ColorScore>
-4.346

> <ROCS_Overlap>
894.021

> <ROCS_Rank>
621

> <EON_Rank>
326

> <i_qp_#stars>
0

> <i_qp_#amine>
1

> <i_qp_#amidine>
0

> <i_qp_#acid>
0

> <i_qp_#amide>
0

> <i_qp_#rotor>
5

> <i_qp_#rtvFG>
0

> <i_qp_CNS>
1

> <r_qp_mol_MW>
324.422

> <r_qp_dipole>
2.18799

> <r_qp_SASA>
547.482

> <r_qp_FOSA>
301.589

> <r_qp_FISA>
30.7426

> <r_qp_PISA>
215.15

> <r_qp_WPSA>
0

> <r_qp_volume>
1023.03

> <r_qp_donorHB>
1

> <r_qp_accptHB>
5.45

> <r_qp_dip^2/V>
0.00467952

> <r_qp_ACxDN^.5/SA>
0.00995467

> <r_qp_glob>
0.896855

> <r_qp_QPpolrz>
33.632

> <r_qp_QPlogPC16>
9.86003

> <r_qp_QPlogPoct>
15.0466

> <r_qp_QPlogPw>
8.43909

> <r_qp_QPlogPo/w>
3.43535

> <r_qp_QPlogS>
-3.21001

> <r_qp_CIQPlogS>
-3.21812

> <r_qp_QPlogHERG>
-4.95321

> <r_qp_QPPCaco>
1262.61

> <r_qp_QPlogBB>
0.405864

> <r_qp_QPPMDCK>
704.188

> <r_qp_QPlogKp>
-2.91073

> <r_qp_IP(eV)>
8.86775

> <r_qp_EA(eV)>
1.00783

> <i_qp_#metab>
4

> <r_qp_QPlogKhsa>
0.164724

> <i_qp_HumanOralAbsorption>
3

> <r_qp_PercentHumanOralAbsorption>
100

> <r_qp_SAfluorine>
0

> <r_qp_SAamideO>
0

> <r_qp_PSA>
38.4585

> <i_qp_#NandO>
4

> <i_qp_RuleOfFive>
0

> <i_qp_RuleOfThree>
0

> <i_qp_#ringatoms>
18

> <i_qp_#in34>
0

> <i_qp_#in56>
18

> <i_qp_#noncon>
7

> <i_qp_#nonHatm>
24

> <r_qp_Jm>
2.00474

> <stars>
0

> <logP>
3.43535

> <Caco>
1262.61

> <MDCK>
704.188

> <HumanOralAbsorption>
3

> <PercentHumanOralAbsorption>
100.0

> <RuleOfFive>
0

> <base>
fda.sdf

$$$$
chloroquine_94
                    3D
 Schrodinger Suite 2022-3.
 50 51  0  0  1  0            999 V2000
   -8.3143   -6.3495   38.4019 C   0  0  0  0  0  0
   -8.8741   -5.4598   37.4825 C   0  0  0  0  0  0
   -6.1615   -6.1991   41.4334 C   0  0  0  0  0  0
   -7.8663   -3.5986   38.6495 C   0  0  0  0  0  0
   -5.9794   -4.8277   41.4983 C   0  0  0  0  0  0
   -7.5220   -5.8741   39.4586 C   0  0  0  0  0  0
   -7.3025   -4.4835   39.5739 C   0  0  0  0  0  0
   -6.9379   -6.7251   40.4066 C   0  0  0  0  0  0
   -8.6505   -4.0890   37.6063 C   0  0  0  0  0  0
   -4.6327  -10.8647   33.7580 C   0  0  0  0  0  0
   -4.8467  -12.7400   36.7300 C   0  0  0  0  0  0
   -6.8302  -10.3679   41.1256 C   0  0  0  0  0  0
   -5.5560   -9.7485   38.4467 C   0  0  0  0  0  0
   -5.0192   -9.2342   39.7872 C   0  0  0  0  0  0
   -3.9618  -10.4499   35.0492 C   0  0  0  0  0  0
   -5.7776  -11.6401   36.2684 C   0  0  0  0  0  0
   -4.4317   -9.8977   37.4317 C   0  0  0  0  0  0
   -6.1276   -9.0464   40.8320 C   0  0  1  0  0  0
   -6.5429   -4.0245   40.5864 N   0  3  0  0  0  0
   -7.1108   -8.0965   40.3542 N   0  0  0  0  0  0
   -5.0005  -10.3525   36.1401 N   0  3  0  0  0  0
   -9.3448   -3.0001   36.4682 Cl  0  0  0  0  0  0
   -8.5108   -7.4110   38.2725 H   0  0  0  0  0  0
   -9.4848   -5.8519   36.6729 H   0  0  0  0  0  0
   -5.7004   -6.8416   42.1775 H   0  0  0  0  0  0
   -7.6900   -2.5300   38.7488 H   0  0  0  0  0  0
   -5.3923   -4.3361   42.2620 H   0  0  0  0  0  0
   -5.0931  -11.8510   33.8712 H   0  0  0  0  0  0
   -5.4172  -10.1555   33.4740 H   0  0  0  0  0  0
   -3.9105  -10.9205   32.9368 H   0  0  0  0  0  0
   -4.0544  -12.8991   35.9921 H   0  0  0  0  0  0
   -4.3742  -12.4843   37.6842 H   0  0  0  0  0  0
   -5.3841  -13.6854   36.8588 H   0  0  0  0  0  0
   -7.2787  -10.7806   40.2151 H   0  0  0  0  0  0
   -6.1242  -11.1068   41.5188 H   0  0  0  0  0  0
   -7.6336  -10.2389   41.8595 H   0  0  0  0  0  0
   -6.0504  -10.7161   38.5974 H   0  0  0  0  0  0
   -6.3131   -9.0580   38.0561 H   0  0  0  0  0  0
   -4.2822   -9.9514   40.1703 H   0  0  0  0  0  0
   -4.4886   -8.2867   39.6261 H   0  0  0  0  0  0
   -3.4928   -9.4658   34.9634 H   0  0  0  0  0  0
   -3.2218  -11.1860   35.3750 H   0  0  0  0  0  0
   -6.5802  -11.4605   36.9891 H   0  0  0  0  0  0
   -6.2041  -11.8574   35.2853 H   0  0  0  0  0  0
   -3.9252   -8.9476   37.2385 H   0  0  0  0  0  0
   -3.6993  -10.6503   37.7382 H   0  0  0  0  0  0
   -5.6926   -8.6650   41.7629 H   0  0  0  0  0  0
   -7.9687   -8.4613   39.9606 H   0  0  0  0  0  0
   -6.3925   -3.0387   40.6610 H   0  0  0  0  0  0
   -5.6539   -9.6536   35.8492 H   0  0  0  0  0  0
  1  2  2  0  0  0
  1  6  1  0  0  0
  1 23  1  0  0  0
  2  9  1  0  0  0
  2 24  1  0  0  0
  3  5  2  0  0  0
  3  8  1  0  0  0
  3 25  1  0  0  0
  4  7  1  0  0  0
  4  9  2  0  0  0
  4 26  1  0  0  0
  5 19  1  0  0  0
  5 27  1  0  0  0
  6  7  1  0  0  0
  6  8  2  0  0  0
  7 19  2  0  0  0
  8 20  1  0  0  0
  9 22  1  0  0  0
 10 15  1  0  0  0
 10 28  1  0  0  0
 10 29  1  0  0  0
 10 30  1  0  0  0
 11 16  1  0  0  0
 11 31  1  0  0  0
 11 32  1  0  0  0
 11 33  1  0  0  0
 12 18  1  0  0  0
 12 34  1  0  0  0
 12 35  1  0  0  0
 12 36  1  0  0  0
 13 14  1  0  0  0
 13 17  1  0  0  0
 13 37  1  0  0  0
 13 38  1  0  0  0
 14 18  1  0  0  0
 14 39  1  0  0  0
 14 40  1  0  0  0
 15 21  1  0  0  0
 15 41  1  0  0  0
 15 42  1  0  0  0
 16 21  1  0  0  0
 16 43  1  0  0  0
 16 44  1  0  0  0
 17 21  1  0  0  0
 17 45  1  0  0  0
 17 46  1  0  0  0
 18 20  1  0  0  0
 18 47  1  0  0  0
 19 49  1  0  0  0
 20 48  1  0  0  0
 21 50  1  0  0  0
M  CHG  2  19   1  21   1
M  END
> <EON_Query>
60c

> <EON_ET_pb>
0.026

> <EON_ET_coul>
0.008

> <EON_ET_combo>
0.649

> <EON_ShapeTanimoto>
0.624

> <ROCS_ShapeQuery>
60c

> <ROCS_TanimotoCombo>
0.805

> <ROCS_ShapeTanimoto>
0.739

> <ROCS_ColorTanimoto>
0.067

> <ROCS_RefTversky>
0.74

> <ROCS_RefColorTversky>
0.102

> <ROCS_RefTverskyCombo>
0.842

> <ROCS_FitTversky>
1

> <ROCS_FitColorTversky>
0.161

> <ROCS_FitTverskyCombo>
1.161

> <ROCS_ColorScore>
-1.002

> <ROCS_Overlap>
957.984

> <ROCS_Rank>
592

> <EON_Rank>
331

> <i_qp_#stars>
0

> <i_qp_#amine>
1

> <i_qp_#amidine>
0

> <i_qp_#acid>
0

> <i_qp_#amide>
0

> <i_qp_#rotor>
8

> <i_qp_#rtvFG>
0

> <i_qp_CNS>
1

> <r_qp_mol_MW>
319.876

> <r_qp_dipole>
6.32492

> <r_qp_SASA>
629.432

> <r_qp_FOSA>
341.319

> <r_qp_FISA>
28.4873

> <r_qp_PISA>
188.145

> <r_qp_WPSA>
71.4801

> <r_qp_volume>
1101.39

> <r_qp_donorHB>
1

> <r_qp_accptHB>
4

> <r_qp_dip^2/V>
0.0363219

> <r_qp_ACxDN^.5/SA>
0.00635493

> <r_qp_glob>
0.819427

> <r_qp_QPpolrz>
34.5837

> <r_qp_QPlogPC16>
10.6854

> <r_qp_QPlogPoct>
14.9926

> <r_qp_QPlogPw>
6.37233

> <r_qp_QPlogPo/w>
4.2551

> <r_qp_QPlogS>
-4.07386

> <r_qp_CIQPlogS>
-3.66277

> <r_qp_QPlogHERG>
-6.07727

> <r_qp_QPPCaco>
1326.34

> <r_qp_QPlogBB>
0.372448

> <r_qp_QPPMDCK>
1829.67

> <r_qp_QPlogKp>
-2.67626

> <r_qp_IP(eV)>
8.23456

> <r_qp_EA(eV)>
0.731797

> <i_qp_#metab>
4

> <r_qp_QPlogKhsa>
0.496499

> <i_qp_HumanOralAbsorption>
3

> <r_qp_PercentHumanOralAbsorption>
100

> <r_qp_SAfluorine>
0

> <r_qp_SAamideO>
0

> <r_qp_PSA>
25.3327

> <i_qp_#NandO>
3

> <i_qp_RuleOfFive>
0

> <i_qp_RuleOfThree>
0

> <i_qp_#ringatoms>
10

> <i_qp_#in34>
0

> <i_qp_#in56>
10

> <i_qp_#noncon>
0

> <i_qp_#nonHatm>
22

> <r_qp_Jm>
0.0568669

> <stars>
0

> <logP>
4.2551

> <Caco>
1326.34

> <MDCK>
1829.67

> <HumanOralAbsorption>
3

> <PercentHumanOralAbsorption>
100.0

> <RuleOfFive>
0

> <base>
fda.sdf

$$$$
Z1541662176_94
                    3D
 Schrodinger Suite 2022-3.
 50 51  0  0  1  0            999 V2000
   -8.3143   -6.3495   38.4019 C   0  0  0  0  0  0
   -8.8741   -5.4598   37.4825 C   0  0  0  0  0  0
   -6.1615   -6.1991   41.4334 C   0  0  0  0  0  0
   -7.8663   -3.5986   38.6495 C   0  0  0  0  0  0
   -5.9794   -4.8277   41.4983 C   0  0  0  0  0  0
   -7.5220   -5.8741   39.4586 C   0  0  0  0  0  0
   -7.3025   -4.4835   39.5739 C   0  0  0  0  0  0
   -6.9379   -6.7251   40.4066 C   0  0  0  0  0  0
   -8.6505   -4.0890   37.6063 C   0  0  0  0  0  0
   -4.6327  -10.8647   33.7580 C   0  0  0  0  0  0
   -4.8467  -12.7400   36.7300 C   0  0  0  0  0  0
   -6.8302  -10.3679   41.1256 C   0  0  0  0  0  0
   -5.5560   -9.7485   38.4467 C   0  0  0  0  0  0
   -5.0192   -9.2342   39.7872 C   0  0  0  0  0  0
   -3.9618  -10.4499   35.0492 C   0  0  0  0  0  0
   -5.7776  -11.6401   36.2684 C   0  0  0  0  0  0
   -4.4317   -9.8977   37.4317 C   0  0  0  0  0  0
   -6.1276   -9.0464   40.8320 C   0  0  1  0  0  0
   -6.5429   -4.0245   40.5864 N   0  3  0  0  0  0
   -7.1108   -8.0965   40.3542 N   0  0  0  0  0  0
   -5.0005  -10.3525   36.1401 N   0  3  0  0  0  0
   -9.3448   -3.0001   36.4682 Cl  0  0  0  0  0  0
   -8.5108   -7.4110   38.2725 H   0  0  0  0  0  0
   -9.4848   -5.8519   36.6729 H   0  0  0  0  0  0
   -5.7004   -6.8416   42.1775 H   0  0  0  0  0  0
   -7.6900   -2.5300   38.7488 H   0  0  0  0  0  0
   -5.3923   -4.3361   42.2620 H   0  0  0  0  0  0
   -5.0931  -11.8510   33.8712 H   0  0  0  0  0  0
   -5.4172  -10.1555   33.4740 H   0  0  0  0  0  0
   -3.9105  -10.9205   32.9368 H   0  0  0  0  0  0
   -4.0544  -12.8991   35.9921 H   0  0  0  0  0  0
   -4.3742  -12.4843   37.6842 H   0  0  0  0  0  0
   -5.3841  -13.6854   36.8588 H   0  0  0  0  0  0
   -7.2787  -10.7806   40.2151 H   0  0  0  0  0  0
   -6.1242  -11.1068   41.5188 H   0  0  0  0  0  0
   -7.6336  -10.2389   41.8595 H   0  0  0  0  0  0
   -6.0504  -10.7161   38.5974 H   0  0  0  0  0  0
   -6.3131   -9.0580   38.0561 H   0  0  0  0  0  0
   -4.2822   -9.9514   40.1703 H   0  0  0  0  0  0
   -4.4886   -8.2867   39.6261 H   0  0  0  0  0  0
   -3.4928   -9.4658   34.9634 H   0  0  0  0  0  0
   -3.2218  -11.1860   35.3750 H   0  0  0  0  0  0
   -6.5802  -11.4605   36.9891 H   0  0  0  0  0  0
   -6.2041  -11.8574   35.2853 H   0  0  0  0  0  0
   -3.9252   -8.9476   37.2385 H   0  0  0  0  0  0
   -3.6993  -10.6503   37.7382 H   0  0  0  0  0  0
   -5.6926   -8.6650   41.7629 H   0  0  0  0  0  0
   -7.9687   -8.4613   39.9606 H   0  0  0  0  0  0
   -6.3925   -3.0387   40.6610 H   0  0  0  0  0  0
   -5.6539   -9.6536   35.8492 H   0  0  0  0  0  0
  1  2  2  0  0  0
  1  6  1  0  0  0
  1 23  1  0  0  0
  2  9  1  0  0  0
  2 24  1  0  0  0
  3  5  2  0  0  0
  3  8  1  0  0  0
  3 25  1  0  0  0
  4  7  1  0  0  0
  4  9  2  0  0  0
  4 26  1  0  0  0
  5 19  1  0  0  0
  5 27  1  0  0  0
  6  7  1  0  0  0
  6  8  2  0  0  0
  7 19  2  0  0  0
  8 20  1  0  0  0
  9 22  1  0  0  0
 10 15  1  0  0  0
 10 28  1  0  0  0
 10 29  1  0  0  0
 10 30  1  0  0  0
 11 16  1  0  0  0
 11 31  1  0  0  0
 11 32  1  0  0  0
 11 33  1  0  0  0
 12 18  1  0  0  0
 12 34  1  0  0  0
 12 35  1  0  0  0
 12 36  1  0  0  0
 13 14  1  0  0  0
 13 17  1  0  0  0
 13 37  1  0  0  0
 13 38  1  0  0  0
 14 18  1  0  0  0
 14 39  1  0  0  0
 14 40  1  0  0  0
 15 21  1  0  0  0
 15 41  1  0  0  0
 15 42  1  0  0  0
 16 21  1  0  0  0
 16 43  1  0  0  0
 16 44  1  0  0  0
 17 21  1  0  0  0
 17 45  1  0  0  0
 17 46  1  0  0  0
 18 20  1  0  0  0
 18 47  1  0  0  0
 19 49  1  0  0  0
 20 48  1  0  0  0
 21 50  1  0  0  0
M  CHG  2  19   1  21   1
M  END
> <EON_Query>
60c

> <EON_ET_pb>
0.026

> <EON_ET_coul>
0.008

> <EON_ET_combo>
0.649

> <EON_ShapeTanimoto>
0.624

> <ROCS_ShapeQuery>
60c

> <ROCS_TanimotoCombo>
0.805

> <ROCS_ShapeTanimoto>
0.739

> <ROCS_ColorTanimoto>
0.067

> <ROCS_RefTversky>
0.74

> <ROCS_RefColorTversky>
0.102

> <ROCS_RefTverskyCombo>
0.842

> <ROCS_FitTversky>
1

> <ROCS_FitColorTversky>
0.161

> <ROCS_FitTverskyCombo>
1.161

> <ROCS_ColorScore>
-1.002

> <ROCS_Overlap>
957.984

> <ROCS_Rank>
593

> <EON_Rank>
332

> <i_qp_#stars>
0

> <i_qp_#amine>
1

> <i_qp_#amidine>
0

> <i_qp_#acid>
0

> <i_qp_#amide>
0

> <i_qp_#rotor>
8

> <i_qp_#rtvFG>
0

> <i_qp_CNS>
1

> <r_qp_mol_MW>
319.876

> <r_qp_dipole>
6.32492

> <r_qp_SASA>
629.432

> <r_qp_FOSA>
341.319

> <r_qp_FISA>
28.4873

> <r_qp_PISA>
188.145

> <r_qp_WPSA>
71.4801

> <r_qp_volume>
1101.39

> <r_qp_donorHB>
1

> <r_qp_accptHB>
4

> <r_qp_dip^2/V>
0.0363219

> <r_qp_ACxDN^.5/SA>
0.00635493

> <r_qp_glob>
0.819427

> <r_qp_QPpolrz>
34.5837

> <r_qp_QPlogPC16>
10.6854

> <r_qp_QPlogPoct>
14.9926

> <r_qp_QPlogPw>
6.37233

> <r_qp_QPlogPo/w>
4.2551

> <r_qp_QPlogS>
-4.07386

> <r_qp_CIQPlogS>
-3.66277

> <r_qp_QPlogHERG>
-6.07727

> <r_qp_QPPCaco>
1326.34

> <r_qp_QPlogBB>
0.372448

> <r_qp_QPPMDCK>
1829.67

> <r_qp_QPlogKp>
-2.67626

> <r_qp_IP(eV)>
8.23456

> <r_qp_EA(eV)>
0.731797

> <i_qp_#metab>
4

> <r_qp_QPlogKhsa>
0.496499

> <i_qp_HumanOralAbsorption>
3

> <r_qp_PercentHumanOralAbsorption>
100

> <r_qp_SAfluorine>
0

> <r_qp_SAamideO>
0

> <r_qp_PSA>
25.3327

> <i_qp_#NandO>
3

> <i_qp_RuleOfFive>
0

> <i_qp_RuleOfThree>
0

> <i_qp_#ringatoms>
10

> <i_qp_#in34>
0

> <i_qp_#in56>
10

> <i_qp_#noncon>
0

> <i_qp_#nonHatm>
22

> <r_qp_Jm>
0.0568669

> <stars>
0

> <logP>
4.2551

> <Caco>
1326.34

> <MDCK>
1829.67

> <HumanOralAbsorption>
3

> <PercentHumanOralAbsorption>
100.0

> <RuleOfFive>
0

> <base>
fda.sdf

$$$$
Moclobemide.cdx_0
                    3D
 Schrodinger Suite 2022-3.
 36 37  0  0  1  0            999 V2000
   -6.9402   -4.5313   39.2012 C   0  0  0  0  0  0
   -8.6431   -6.1268   38.5754 C   0  0  0  0  0  0
   -7.6568   -3.5171   38.5662 C   0  0  0  0  0  0
   -9.3599   -5.1125   37.9402 C   0  0  0  0  0  0
   -7.4332   -5.8362   39.2058 C   0  0  0  0  0  0
   -8.8667   -3.8076   37.9357 C   0  0  0  0  0  0
   -6.6703   -6.9164   39.8825 C   0  0  0  0  0  0
   -5.5224  -11.3220   37.5753 C   0  0  0  0  0  0
   -3.9126   -9.5270   36.9687 C   0  0  0  0  0  0
   -5.7794  -11.5049   36.0891 C   0  0  0  0  0  0
   -4.2523   -9.8030   35.5138 C   0  0  0  0  0  0
   -6.2161   -9.3546   39.9561 C   0  0  0  0  0  0
   -4.8857   -9.5990   39.2693 C   0  0  0  0  0  0
   -6.8828   -8.1682   39.3744 N   0  0  0  0  0  0
   -5.1121   -9.8879   37.8131 N   0  3  0  0  0  0
   -5.9419   -6.6336   40.8301 O   0  0  0  0  0  0
   -4.6128  -11.1734   35.3345 O   0  0  0  0  0  0
   -9.7514   -2.5563   37.1535 Cl  0  0  0  0  0  0
   -5.9982   -4.2939   39.6890 H   0  0  0  0  0  0
   -9.0371   -7.1398   38.5729 H   0  0  0  0  0  0
   -7.2610   -2.5047   38.5708 H   0  0  0  0  0  0
  -10.3010   -5.3538   37.4529 H   0  0  0  0  0  0
   -6.4248  -11.5146   38.1635 H   0  0  0  0  0  0
   -4.6988  -11.9549   37.9234 H   0  0  0  0  0  0
   -3.0783  -10.1477   37.3134 H   0  0  0  0  0  0
   -3.6927   -8.4680   37.1338 H   0  0  0  0  0  0
   -6.0223  -12.5517   35.8818 H   0  0  0  0  0  0
   -6.6244  -10.8958   35.7457 H   0  0  0  0  0  0
   -5.0664   -9.1601   35.1584 H   0  0  0  0  0  0
   -3.3778   -9.6055   34.8858 H   0  0  0  0  0  0
   -6.8809  -10.2188   39.8553 H   0  0  0  0  0  0
   -6.0587   -9.1687   41.0234 H   0  0  0  0  0  0
   -4.3772  -10.4729   39.6861 H   0  0  0  0  0  0
   -4.2239   -8.7291   39.3204 H   0  0  0  0  0  0
   -7.5340   -8.3611   38.6411 H   0  0  0  0  0  0
   -5.8702   -9.3103   37.5105 H   0  0  0  0  0  0
  1  3  2  0  0  0
  1  5  1  0  0  0
  1 19  1  0  0  0
  2  4  1  0  0  0
  2  5  2  0  0  0
  2 20  1  0  0  0
  3  6  1  0  0  0
  3 21  1  0  0  0
  4  6  2  0  0  0
  4 22  1  0  0  0
  5  7  1  0  0  0
  6 18  1  0  0  0
  7 14  1  0  0  0
  7 16  2  0  0  0
  8 10  1  0  0  0
  8 15  1  0  0  0
  8 23  1  0  0  0
  8 24  1  0  0  0
  9 11  1  0  0  0
  9 15  1  0  0  0
  9 25  1  0  0  0
  9 26  1  0  0  0
 10 17  1  0  0  0
 10 27  1  0  0  0
 10 28  1  0  0  0
 11 17  1  0  0  0
 11 29  1  0  0  0
 11 30  1  0  0  0
 12 13  1  0  0  0
 12 14  1  0  0  0
 12 31  1  0  0  0
 12 32  1  0  0  0
 13 15  1  0  0  0
 13 33  1  0  0  0
 13 34  1  0  0  0
 14 35  1  0  0  0
 15 36  1  0  0  0
M  CHG  1  15   1
M  END
> <EON_Query>
60c

> <EON_ET_pb>
0.138

> <EON_ET_coul>
0.086

> <EON_ET_combo>
0.648

> <EON_ShapeTanimoto>
0.51

> <ROCS_ShapeQuery>
60c

> <ROCS_TanimotoCombo>
0.784

> <ROCS_ShapeTanimoto>
0.63

> <ROCS_ColorTanimoto>
0.154

> <ROCS_RefTversky>
0.627

> <ROCS_RefColorTversky>
0.231

> <ROCS_RefTverskyCombo>
0.857

> <ROCS_FitTversky>
1

> <ROCS_FitColorTversky>
0.318

> <ROCS_FitTverskyCombo>
1.318

> <ROCS_ColorScore>
-2.273

> <ROCS_Overlap>
805.862

> <ROCS_Rank>
776

> <EON_Rank>
337

> <i_qp_#stars>
0

> <i_qp_#amine>
1

> <i_qp_#amidine>
0

> <i_qp_#acid>
0

> <i_qp_#amide>
0

> <i_qp_#rotor>
4

> <i_qp_#rtvFG>
0

> <i_qp_CNS>
2

> <r_qp_mol_MW>
268.742

> <r_qp_dipole>
3.70532

> <r_qp_SASA>
514.366

> <r_qp_FOSA>
252.596

> <r_qp_FISA>
39.4472

> <r_qp_PISA>
150.778

> <r_qp_WPSA>
71.5448

> <r_qp_volume>
874.576

> <r_qp_donorHB>
1

> <r_qp_accptHB>
6.2

> <r_qp_dip^2/V>
0.0156983

> <r_qp_ACxDN^.5/SA>
0.0120537

> <r_qp_glob>
0.859853

> <r_qp_QPpolrz>
27.7181

> <r_qp_QPlogPC16>
8.38805

> <r_qp_QPlogPoct>
13.7035

> <r_qp_QPlogPw>
8.9651

> <r_qp_QPlogPo/w>
1.86573

> <r_qp_QPlogS>
-1.96257

> <r_qp_CIQPlogS>
-1.67646

> <r_qp_QPlogHERG>
-5.24494

> <r_qp_QPPCaco>
1044.05

> <r_qp_QPlogBB>
0.540804

> <r_qp_QPPMDCK>
1413.8

> <r_qp_QPlogKp>
-3.39392

> <r_qp_IP(eV)>
9.43288

> <r_qp_EA(eV)>
0.442115

> <i_qp_#metab>
2

> <r_qp_QPlogKhsa>
-0.333337

> <i_qp_HumanOralAbsorption>
3

> <r_qp_PercentHumanOralAbsorption>
91.8993

> <r_qp_SAfluorine>
0

> <r_qp_SAamideO>
0

> <r_qp_PSA>
49.6424

> <i_qp_#NandO>
4

> <i_qp_RuleOfFive>
0

> <i_qp_RuleOfThree>
0

> <i_qp_#ringatoms>
12

> <i_qp_#in34>
0

> <i_qp_#in56>
12

> <i_qp_#noncon>
4

> <i_qp_#nonHatm>
18

> <r_qp_Jm>
1.18261

> <stars>
0

> <logP>
1.86573

> <Caco>
1044.05

> <MDCK>
1413.8

> <HumanOralAbsorption>
3

> <PercentHumanOralAbsorption>
91.8993

> <RuleOfFive>
0

> <base>
fda.sdf

$$$$
procyclidine hydrochloride.cdx_2
                    3D
 Schrodinger Suite 2022-3.
 51 53  0  0  1  0            999 V2000
   -5.9678   -9.9331   41.7548 C   0  0  0  0  0  0
   -7.2950   -9.7635   41.3606 C   0  0  0  0  0  0
   -4.9379   -9.3820   40.9922 C   0  0  0  0  0  0
   -7.5924   -9.0429   40.2039 C   0  0  0  0  0  0
   -5.2352   -8.6615   39.8355 C   0  0  0  0  0  0
   -6.5625   -8.4920   39.4413 C   0  0  0  0  0  0
   -8.2685   -3.5792   38.5752 C   0  0  0  0  0  0
   -7.8974   -4.3453   39.8412 C   0  0  0  0  0  0
   -8.9653   -4.4788   37.5591 C   0  0  0  0  0  0
   -4.0277  -10.5696   35.0114 C   0  0  0  0  0  0
   -4.1602  -11.7660   35.9322 C   0  0  0  0  0  0
   -7.0630   -5.5845   39.5256 C   0  0  0  0  0  0
   -8.1328   -5.7185   37.2397 C   0  0  0  0  0  0
   -5.3486   -9.8565   35.2050 C   0  0  0  0  0  0
   -4.8234  -11.2019   37.1766 C   0  0  0  0  0  0
   -7.7648   -6.4966   38.5103 C   0  0  0  0  0  0
   -7.5786   -8.5830   37.0951 C   0  0  0  0  0  0
   -7.0580  -10.0187   37.0485 C   0  0  0  0  0  0
   -6.8884   -7.7007   38.1706 C   0  0  2  0  0  0
   -5.6071   -9.9969   36.6891 N   0  3  0  0  0  0
   -5.6813   -7.1836   37.5871 O   0  0  0  0  0  0
   -5.7364  -10.4930   42.6562 H   0  0  0  0  0  0
   -8.0970  -10.1915   41.9548 H   0  0  0  0  0  0
   -3.9045   -9.5129   41.2993 H   0  0  0  0  0  0
   -8.6294   -8.9161   39.9043 H   0  0  0  0  0  0
   -4.4264   -8.2359   39.2475 H   0  0  0  0  0  0
   -8.9219   -2.7376   38.8317 H   0  0  0  0  0  0
   -7.3615   -3.1562   38.1260 H   0  0  0  0  0  0
   -7.3403   -3.6882   40.5187 H   0  0  0  0  0  0
   -8.8116   -4.6456   40.3678 H   0  0  0  0  0  0
   -9.9418   -4.7868   37.9529 H   0  0  0  0  0  0
   -9.1559   -3.9152   36.6386 H   0  0  0  0  0  0
   -3.1959   -9.9303   35.3301 H   0  0  0  0  0  0
   -3.8598  -10.8587   33.9702 H   0  0  0  0  0  0
   -4.8066  -12.5251   35.4750 H   0  0  0  0  0  0
   -3.1975  -12.2355   36.1535 H   0  0  0  0  0  0
   -6.0868   -5.2710   39.1335 H   0  0  0  0  0  0
   -6.8694   -6.1363   40.4533 H   0  0  0  0  0  0
   -8.6944   -6.3646   36.5545 H   0  0  0  0  0  0
   -7.2204   -5.4130   36.7115 H   0  0  0  0  0  0
   -5.3186   -8.7939   34.9540 H   0  0  0  0  0  0
   -6.1606  -10.3614   34.6720 H   0  0  0  0  0  0
   -5.5012  -11.9149   37.6543 H   0  0  0  0  0  0
   -4.0909  -10.8320   37.9005 H   0  0  0  0  0  0
   -8.6913   -6.8716   38.9656 H   0  0  0  0  0  0
   -7.4824   -8.1243   36.1028 H   0  0  0  0  0  0
   -8.6546   -8.6226   37.3144 H   0  0  0  0  0  0
   -7.5601  -10.6178   36.2836 H   0  0  0  0  0  0
   -7.1290  -10.5216   38.0168 H   0  0  0  0  0  0
   -5.9558   -6.6996   36.7969 H   0  0  0  0  0  0
   -5.2071   -9.1937   37.1306 H   0  0  0  0  0  0
  1  2  2  0  0  0
  1  3  1  0  0  0
  1 22  1  0  0  0
  2  4  1  0  0  0
  2 23  1  0  0  0
  3  5  2  0  0  0
  3 24  1  0  0  0
  4  6  2  0  0  0
  4 25  1  0  0  0
  5  6  1  0  0  0
  5 26  1  0  0  0
  6 19  1  0  0  0
  7  8  1  0  0  0
  7  9  1  0  0  0
  7 27  1  0  0  0
  7 28  1  0  0  0
  8 12  1  0  0  0
  8 29  1  0  0  0
  8 30  1  0  0  0
  9 13  1  0  0  0
  9 31  1  0  0  0
  9 32  1  0  0  0
 10 11  1  0  0  0
 10 14  1  0  0  0
 10 33  1  0  0  0
 10 34  1  0  0  0
 11 15  1  0  0  0
 11 35  1  0  0  0
 11 36  1  0  0  0
 12 16  1  0  0  0
 12 37  1  0  0  0
 12 38  1  0  0  0
 13 16  1  0  0  0
 13 39  1  0  0  0
 13 40  1  0  0  0
 14 20  1  0  0  0
 14 41  1  0  0  0
 14 42  1  0  0  0
 15 20  1  0  0  0
 15 43  1  0  0  0
 15 44  1  0  0  0
 16 19  1  0  0  0
 16 45  1  0  0  0
 17 18  1  0  0  0
 17 19  1  0  0  0
 17 46  1  0  0  0
 17 47  1  0  0  0
 18 20  1  0  0  0
 18 48  1  0  0  0
 18 49  1  0  0  0
 19 21  1  0  0  0
 20 51  1  0  0  0
 21 50  1  0  0  0
M  CHG  1  20   1
M  END
> <EON_Query>
60c

> <EON_ET_pb>
0.123

> <EON_ET_coul>
0.078

> <EON_ET_combo>
0.647

> <EON_ShapeTanimoto>
0.524

> <ROCS_ShapeQuery>
60c

> <ROCS_TanimotoCombo>
0.739

> <ROCS_ShapeTanimoto>
0.547

> <ROCS_ColorTanimoto>
0.192

> <ROCS_RefTversky>
0.607

> <ROCS_RefColorTversky>
0.277

> <ROCS_RefTverskyCombo>
0.885

> <ROCS_FitTversky>
0.847

> <ROCS_FitColorTversky>
0.382

> <ROCS_FitTverskyCombo>
1.229

> <ROCS_ColorScore>
-2.734

> <ROCS_Overlap>
785.148

> <ROCS_Rank>
1275

> <EON_Rank>
342

> <i_qp_#stars>
0

> <i_qp_#amine>
1

> <i_qp_#amidine>
0

> <i_qp_#acid>
0

> <i_qp_#amide>
0

> <i_qp_#rotor>
6

> <i_qp_#rtvFG>
0

> <i_qp_CNS>
2

> <r_qp_mol_MW>
287.444

> <r_qp_dipole>
1.92444

> <r_qp_SASA>
564.397

> <r_qp_FOSA>
406.631

> <r_qp_FISA>
11.7865

> <r_qp_PISA>
145.98

> <r_qp_WPSA>
0

> <r_qp_volume>
1021.67

> <r_qp_donorHB>
1

> <r_qp_accptHB>
2.75

> <r_qp_dip^2/V>
0.00362492

> <r_qp_ACxDN^.5/SA>
0.00487245

> <r_qp_glob>
0.869201

> <r_qp_QPpolrz>
32.2747

> <r_qp_QPlogPC16>
9.1134

> <r_qp_QPlogPoct>
12.7728

> <r_qp_QPlogPw>
5.00035

> <r_qp_QPlogPo/w>
4.09983

> <r_qp_QPlogS>
-3.36178

> <r_qp_CIQPlogS>
-3.25336

> <r_qp_QPlogHERG>
-5.07079

> <r_qp_QPPCaco>
1909.98

> <r_qp_QPlogBB>
0.496406

> <r_qp_QPPMDCK>
1101.51

> <r_qp_QPlogKp>
-2.70902

> <r_qp_IP(eV)>
8.78152

> <r_qp_EA(eV)>
-0.470459

> <i_qp_#metab>
3

> <r_qp_QPlogKhsa>
0.620037

> <i_qp_HumanOralAbsorption>
3

> <r_qp_PercentHumanOralAbsorption>
100

> <r_qp_SAfluorine>
0

> <r_qp_SAamideO>
0

> <r_qp_PSA>
16.1966

> <i_qp_#NandO>
2

> <i_qp_RuleOfFive>
0

> <i_qp_RuleOfThree>
0

> <i_qp_#ringatoms>
17

> <i_qp_#in34>
0

> <i_qp_#in56>
17

> <i_qp_#noncon>
10

> <i_qp_#nonHatm>
21

> <r_qp_Jm>
0.244204

> <stars>
0

> <logP>
4.09983

> <Caco>
1909.98

> <MDCK>
1101.51

> <HumanOralAbsorption>
3

> <PercentHumanOralAbsorption>
100.0

> <RuleOfFive>
0

> <base>
fda.sdf

$$$$
Molecule_2
                    3D
 Schrodinger Suite 2022-3.
 51 53  0  0  1  0            999 V2000
   -5.9678   -9.9331   41.7548 C   0  0  0  0  0  0
   -7.2950   -9.7635   41.3606 C   0  0  0  0  0  0
   -4.9379   -9.3820   40.9922 C   0  0  0  0  0  0
   -7.5924   -9.0429   40.2039 C   0  0  0  0  0  0
   -5.2352   -8.6615   39.8355 C   0  0  0  0  0  0
   -6.5625   -8.4920   39.4413 C   0  0  0  0  0  0
   -8.2685   -3.5792   38.5752 C   0  0  0  0  0  0
   -7.8974   -4.3453   39.8412 C   0  0  0  0  0  0
   -8.9653   -4.4788   37.5591 C   0  0  0  0  0  0
   -4.0277  -10.5696   35.0114 C   0  0  0  0  0  0
   -4.1602  -11.7660   35.9322 C   0  0  0  0  0  0
   -7.0630   -5.5845   39.5256 C   0  0  0  0  0  0
   -8.1328   -5.7185   37.2397 C   0  0  0  0  0  0
   -5.3486   -9.8565   35.2050 C   0  0  0  0  0  0
   -4.8234  -11.2019   37.1766 C   0  0  0  0  0  0
   -7.7648   -6.4966   38.5103 C   0  0  0  0  0  0
   -7.5786   -8.5830   37.0951 C   0  0  0  0  0  0
   -7.0580  -10.0187   37.0485 C   0  0  0  0  0  0
   -6.8884   -7.7007   38.1706 C   0  0  2  0  0  0
   -5.6071   -9.9969   36.6891 N   0  3  0  0  0  0
   -5.6813   -7.1836   37.5871 O   0  0  0  0  0  0
   -5.7364  -10.4930   42.6562 H   0  0  0  0  0  0
   -8.0970  -10.1915   41.9548 H   0  0  0  0  0  0
   -3.9045   -9.5129   41.2993 H   0  0  0  0  0  0
   -8.6294   -8.9161   39.9043 H   0  0  0  0  0  0
   -4.4264   -8.2359   39.2475 H   0  0  0  0  0  0
   -8.9219   -2.7376   38.8317 H   0  0  0  0  0  0
   -7.3615   -3.1562   38.1260 H   0  0  0  0  0  0
   -7.3403   -3.6882   40.5187 H   0  0  0  0  0  0
   -8.8116   -4.6456   40.3678 H   0  0  0  0  0  0
   -9.9418   -4.7868   37.9529 H   0  0  0  0  0  0
   -9.1559   -3.9152   36.6386 H   0  0  0  0  0  0
   -3.1959   -9.9303   35.3301 H   0  0  0  0  0  0
   -3.8598  -10.8587   33.9702 H   0  0  0  0  0  0
   -4.8066  -12.5251   35.4750 H   0  0  0  0  0  0
   -3.1975  -12.2355   36.1535 H   0  0  0  0  0  0
   -6.0868   -5.2710   39.1335 H   0  0  0  0  0  0
   -6.8694   -6.1363   40.4533 H   0  0  0  0  0  0
   -8.6944   -6.3646   36.5545 H   0  0  0  0  0  0
   -7.2204   -5.4130   36.7115 H   0  0  0  0  0  0
   -5.3186   -8.7939   34.9540 H   0  0  0  0  0  0
   -6.1606  -10.3614   34.6720 H   0  0  0  0  0  0
   -5.5012  -11.9149   37.6543 H   0  0  0  0  0  0
   -4.0909  -10.8320   37.9005 H   0  0  0  0  0  0
   -8.6913   -6.8716   38.9656 H   0  0  0  0  0  0
   -7.4824   -8.1243   36.1028 H   0  0  0  0  0  0
   -8.6546   -8.6226   37.3144 H   0  0  0  0  0  0
   -7.5601  -10.6178   36.2836 H   0  0  0  0  0  0
   -7.1290  -10.5216   38.0168 H   0  0  0  0  0  0
   -5.9558   -6.6996   36.7969 H   0  0  0  0  0  0
   -5.2071   -9.1937   37.1306 H   0  0  0  0  0  0
  1  2  2  0  0  0
  1  3  1  0  0  0
  1 22  1  0  0  0
  2  4  1  0  0  0
  2 23  1  0  0  0
  3  5  2  0  0  0
  3 24  1  0  0  0
  4  6  2  0  0  0
  4 25  1  0  0  0
  5  6  1  0  0  0
  5 26  1  0  0  0
  6 19  1  0  0  0
  7  8  1  0  0  0
  7  9  1  0  0  0
  7 27  1  0  0  0
  7 28  1  0  0  0
  8 12  1  0  0  0
  8 29  1  0  0  0
  8 30  1  0  0  0
  9 13  1  0  0  0
  9 31  1  0  0  0
  9 32  1  0  0  0
 10 11  1  0  0  0
 10 14  1  0  0  0
 10 33  1  0  0  0
 10 34  1  0  0  0
 11 15  1  0  0  0
 11 35  1  0  0  0
 11 36  1  0  0  0
 12 16  1  0  0  0
 12 37  1  0  0  0
 12 38  1  0  0  0
 13 16  1  0  0  0
 13 39  1  0  0  0
 13 40  1  0  0  0
 14 20  1  0  0  0
 14 41  1  0  0  0
 14 42  1  0  0  0
 15 20  1  0  0  0
 15 43  1  0  0  0
 15 44  1  0  0  0
 16 19  1  0  0  0
 16 45  1  0  0  0
 17 18  1  0  0  0
 17 19  1  0  0  0
 17 46  1  0  0  0
 17 47  1  0  0  0
 18 20  1  0  0  0
 18 48  1  0  0  0
 18 49  1  0  0  0
 19 21  1  0  0  0
 20 51  1  0  0  0
 21 50  1  0  0  0
M  CHG  1  20   1
M  END
> <EON_Query>
60c

> <EON_ET_pb>
0.123

> <EON_ET_coul>
0.078

> <EON_ET_combo>
0.647

> <EON_ShapeTanimoto>
0.524

> <ROCS_ShapeQuery>
60c

> <ROCS_TanimotoCombo>
0.739

> <ROCS_ShapeTanimoto>
0.547

> <ROCS_ColorTanimoto>
0.192

> <ROCS_RefTversky>
0.607

> <ROCS_RefColorTversky>
0.277

> <ROCS_RefTverskyCombo>
0.885

> <ROCS_FitTversky>
0.847

> <ROCS_FitColorTversky>
0.382

> <ROCS_FitTverskyCombo>
1.229

> <ROCS_ColorScore>
-2.734

> <ROCS_Overlap>
785.148

> <ROCS_Rank>
1274

> <EON_Rank>
343

> <i_qp_#stars>
0

> <i_qp_#amine>
1

> <i_qp_#amidine>
0

> <i_qp_#acid>
0

> <i_qp_#amide>
0

> <i_qp_#rotor>
6

> <i_qp_#rtvFG>
0

> <i_qp_CNS>
2

> <r_qp_mol_MW>
287.444

> <r_qp_dipole>
1.92444

> <r_qp_SASA>
564.397

> <r_qp_FOSA>
406.631

> <r_qp_FISA>
11.7865

> <r_qp_PISA>
145.98

> <r_qp_WPSA>
0

> <r_qp_volume>
1021.67

> <r_qp_donorHB>
1

> <r_qp_accptHB>
2.75

> <r_qp_dip^2/V>
0.00362492

> <r_qp_ACxDN^.5/SA>
0.00487245

> <r_qp_glob>
0.869201

> <r_qp_QPpolrz>
32.2747

> <r_qp_QPlogPC16>
9.1134

> <r_qp_QPlogPoct>
12.7728

> <r_qp_QPlogPw>
5.00035

> <r_qp_QPlogPo/w>
4.09983

> <r_qp_QPlogS>
-3.36178

> <r_qp_CIQPlogS>
-3.25336

> <r_qp_QPlogHERG>
-5.07079

> <r_qp_QPPCaco>
1909.98

> <r_qp_QPlogBB>
0.496406

> <r_qp_QPPMDCK>
1101.51

> <r_qp_QPlogKp>
-2.70902

> <r_qp_IP(eV)>
8.78152

> <r_qp_EA(eV)>
-0.470459

> <i_qp_#metab>
3

> <r_qp_QPlogKhsa>
0.620037

> <i_qp_HumanOralAbsorption>
3

> <r_qp_PercentHumanOralAbsorption>
100

> <r_qp_SAfluorine>
0

> <r_qp_SAamideO>
0

> <r_qp_PSA>
16.1966

> <i_qp_#NandO>
2

> <i_qp_RuleOfFive>
0

> <i_qp_RuleOfThree>
0

> <i_qp_#ringatoms>
17

> <i_qp_#in34>
0

> <i_qp_#in56>
17

> <i_qp_#noncon>
10

> <i_qp_#nonHatm>
21

> <r_qp_Jm>
0.244204

> <stars>
0

> <logP>
4.09983

> <Caco>
1909.98

> <MDCK>
1101.51

> <HumanOralAbsorption>
3

> <PercentHumanOralAbsorption>
100.0

> <RuleOfFive>
0

> <base>
fda.sdf

$$$$
untitled.cdx_174
                    3D
 Schrodinger Suite 2022-3.
 58 58  0  0  1  0            999 V2000
  -10.1865   -4.6006   35.7392 C   0  0  0  0  0  0
   -9.1934   -5.5448   35.9995 C   0  0  0  0  0  0
  -10.3239   -3.4865   36.5672 C   0  0  0  0  0  0
   -8.3377   -5.3750   37.0879 C   0  0  0  0  0  0
   -9.4682   -3.3167   37.6557 C   0  0  0  0  0  0
   -8.4751   -4.2610   37.9160 C   0  0  0  0  0  0
   -7.6937   -5.2861   40.0683 C   0  0  0  0  0  0
   -6.9308   -2.5673   41.1782 C   0  0  0  0  0  0
   -5.7255   -2.9359   37.6133 C   0  0  0  0  0  0
   -3.2274  -10.8236   35.2994 C   0  0  0  0  0  0
   -5.4744  -13.3703   36.2306 C   0  0  0  0  0  0
   -7.8409   -2.7979   39.9733 C   0  0  0  0  0  0
   -6.0509   -4.0465   38.6078 C   0  0  0  0  0  0
   -4.7289  -10.8360   35.1126 C   0  0  0  0  0  0
   -5.0882  -12.2287   37.1453 C   0  0  0  0  0  0
   -5.0975   -9.7447   37.3206 C   0  0  0  0  0  0
   -6.1636   -9.6225   38.3914 C   0  0  0  0  0  0
   -6.5375   -7.1069   41.0497 C   0  0  0  0  0  0
   -6.8815   -8.3251   40.2147 C   0  0  0  0  0  0
   -7.5268   -4.0722   39.1232 C   0  0  0  0  0  0
   -5.3968  -10.9191   36.4628 N   0  3  0  0  0  0
   -8.7450   -5.6050   40.6108 O   0  0  0  0  0  0
   -6.5069   -5.9539   40.2029 O   0  0  0  0  0  0
   -5.9030   -8.4794   39.1938 O   0  0  0  0  0  0
  -10.8518   -4.7322   34.8909 H   0  0  0  0  0  0
   -9.0857   -6.4117   35.3543 H   0  0  0  0  0  0
  -11.0962   -2.7505   36.3642 H   0  0  0  0  0  0
   -7.5670   -6.1160   37.2833 H   0  0  0  0  0  0
   -9.5827   -2.4456   38.2953 H   0  0  0  0  0  0
   -6.9279   -3.4254   41.8560 H   0  0  0  0  0  0
   -5.9017   -2.3575   40.8743 H   0  0  0  0  0  0
   -7.2848   -1.7002   41.7460 H   0  0  0  0  0  0
   -6.3840   -2.9663   36.7407 H   0  0  0  0  0  0
   -5.8000   -1.9465   38.0728 H   0  0  0  0  0  0
   -4.6972   -3.0518   37.2545 H   0  0  0  0  0  0
   -2.9257   -9.9446   35.8771 H   0  0  0  0  0  0
   -2.8882  -11.7149   35.8373 H   0  0  0  0  0  0
   -2.7089  -10.7896   34.3355 H   0  0  0  0  0  0
   -6.5492  -13.3441   36.0264 H   0  0  0  0  0  0
   -4.9464  -13.3066   35.2734 H   0  0  0  0  0  0
   -5.2398  -14.3386   36.6851 H   0  0  0  0  0  0
   -7.7885   -1.8988   39.3476 H   0  0  0  0  0  0
   -8.8728   -2.8452   40.3468 H   0  0  0  0  0  0
   -5.3574   -3.9585   39.4537 H   0  0  0  0  0  0
   -5.7950   -5.0056   38.1386 H   0  0  0  0  0  0
   -5.0578  -11.7057   34.5373 H   0  0  0  0  0  0
   -5.0844   -9.9192   34.6342 H   0  0  0  0  0  0
   -4.0173  -12.2315   37.3657 H   0  0  0  0  0  0
   -5.6587  -12.2472   38.0780 H   0  0  0  0  0  0
   -4.1048   -9.9184   37.7454 H   0  0  0  0  0  0
   -5.0827   -8.8715   36.6630 H   0  0  0  0  0  0
   -7.1451   -9.4910   37.9252 H   0  0  0  0  0  0
   -6.1953  -10.5085   39.0337 H   0  0  0  0  0  0
   -5.5534   -7.2134   41.5162 H   0  0  0  0  0  0
   -7.2959   -6.9452   41.8214 H   0  0  0  0  0  0
   -7.8590   -8.2121   39.7356 H   0  0  0  0  0  0
   -6.8764   -9.2273   40.8334 H   0  0  0  0  0  0
   -6.3825  -10.9109   36.2942 H   0  0  0  0  0  0
  1  2  2  0  0  0
  1  3  1  0  0  0
  1 25  1  0  0  0
  2  4  1  0  0  0
  2 26  1  0  0  0
  3  5  2  0  0  0
  3 27  1  0  0  0
  4  6  2  0  0  0
  4 28  1  0  0  0
  5  6  1  0  0  0
  5 29  1  0  0  0
  6 20  1  0  0  0
  7 20  1  0  0  0
  7 22  2  0  0  0
  7 23  1  0  0  0
  8 12  1  0  0  0
  8 30  1  0  0  0
  8 31  1  0  0  0
  8 32  1  0  0  0
  9 13  1  0  0  0
  9 33  1  0  0  0
  9 34  1  0  0  0
  9 35  1  0  0  0
 10 14  1  0  0  0
 10 36  1  0  0  0
 10 37  1  0  0  0
 10 38  1  0  0  0
 11 15  1  0  0  0
 11 39  1  0  0  0
 11 40  1  0  0  0
 11 41  1  0  0  0
 12 20  1  0  0  0
 12 42  1  0  0  0
 12 43  1  0  0  0
 13 20  1  0  0  0
 13 44  1  0  0  0
 13 45  1  0  0  0
 14 21  1  0  0  0
 14 46  1  0  0  0
 14 47  1  0  0  0
 15 21  1  0  0  0
 15 48  1  0  0  0
 15 49  1  0  0  0
 16 17  1  0  0  0
 16 21  1  0  0  0
 16 50  1  0  0  0
 16 51  1  0  0  0
 17 24  1  0  0  0
 17 52  1  0  0  0
 17 53  1  0  0  0
 18 19  1  0  0  0
 18 23  1  0  0  0
 18 54  1  0  0  0
 18 55  1  0  0  0
 19 24  1  0  0  0
 19 56  1  0  0  0
 19 57  1  0  0  0
 21 58  1  0  0  0
M  CHG  1  21   1
M  END
> <EON_Query>
60c

> <EON_ET_pb>
0.122

> <EON_ET_coul>
0.098

> <EON_ET_combo>
0.644

> <EON_ShapeTanimoto>
0.522

> <ROCS_ShapeQuery>
60c

> <ROCS_TanimotoCombo>
0.678

> <ROCS_ShapeTanimoto>
0.615

> <ROCS_ColorTanimoto>
0.063

> <ROCS_RefTversky>
0.679

> <ROCS_RefColorTversky>
0.102

> <ROCS_RefTverskyCombo>
0.781

> <ROCS_FitTversky>
0.868

> <ROCS_FitColorTversky>
0.141

> <ROCS_FitTverskyCombo>
1.008

> <ROCS_ColorScore>
-1.005

> <ROCS_Overlap>
881.374

> <ROCS_Rank>
2052

> <EON_Rank>
357

> <i_qp_#stars>
0

> <i_qp_#amine>
1

> <i_qp_#amidine>
0

> <i_qp_#acid>
0

> <i_qp_#amide>
0

> <i_qp_#rotor>
12

> <i_qp_#rtvFG>
0

> <i_qp_CNS>
1

> <r_qp_mol_MW>
335.486

> <r_qp_dipole>
2.14179

> <r_qp_SASA>
684.851

> <r_qp_FOSA>
510.94

> <r_qp_FISA>
27.3093

> <r_qp_PISA>
146.602

> <r_qp_WPSA>
0

> <r_qp_volume>
1232.76

> <r_qp_donorHB>
0

> <r_qp_accptHB>
5.7

> <r_qp_dip^2/V>
0.00372116

> <r_qp_ACxDN^.5/SA>
0

> <r_qp_glob>
0.811871

> <r_qp_QPpolrz>
36.8757

> <r_qp_QPlogPC16>
10.9092

> <r_qp_QPlogPoct>
14.2581

> <r_qp_QPlogPw>
5.51751

> <r_qp_QPlogPo/w>
4.01736

> <r_qp_QPlogS>
-3.03751

> <r_qp_CIQPlogS>
-2.86519

> <r_qp_QPlogHERG>
-6.00143

> <r_qp_QPPCaco>
1360.9

> <r_qp_QPlogBB>
-0.0373957

> <r_qp_QPPMDCK>
763.624

> <r_qp_QPlogKp>
-2.41686

> <r_qp_IP(eV)>
9.19152

> <r_qp_EA(eV)>
-0.297267

> <i_qp_#metab>
3

> <r_qp_QPlogKhsa>
0.162419

> <i_qp_HumanOralAbsorption>
3

> <r_qp_PercentHumanOralAbsorption>
100

> <r_qp_SAfluorine>
0

> <r_qp_SAamideO>
0

> <r_qp_PSA>
39.0681

> <i_qp_#NandO>
4

> <i_qp_RuleOfFive>
0

> <i_qp_RuleOfThree>
0

> <i_qp_#ringatoms>
6

> <i_qp_#in34>
0

> <i_qp_#in56>
6

> <i_qp_#noncon>
0

> <i_qp_#nonHatm>
24

> <r_qp_Jm>
1.17845

> <stars>
0

> <logP>
4.01736

> <Caco>
1360.9

> <MDCK>
763.624

> <HumanOralAbsorption>
3

> <PercentHumanOralAbsorption>
100.0

> <RuleOfFive>
0

> <base>
fda.sdf

$$$$
Tolperisone HCl.cdx_6
                    3D
 Schrodinger Suite 2022-3.
 42 43  0  0  1  0            999 V2000
   -8.1132   -6.4275   38.3885 C   0  0  0  0  0  0
   -7.1831   -4.4277   39.3748 C   0  0  0  0  0  0
   -8.8936   -5.6449   37.5376 C   0  0  0  0  0  0
   -7.9635   -3.6451   38.5239 C   0  0  0  0  0  0
   -7.2580   -5.8188   39.3071 C   0  0  0  0  0  0
   -8.8188   -4.2537   37.6053 C   0  0  0  0  0  0
   -6.4236   -6.6537   40.2161 C   0  0  0  0  0  0
   -5.0298  -11.1923   35.6165 C   0  0  0  0  0  0
   -6.2621  -10.9893   36.4914 C   0  0  0  0  0  0
   -3.7546  -10.8139   36.3622 C   0  0  0  0  0  0
   -6.3273   -9.5765   37.0539 C   0  0  0  0  0  0
   -3.8288   -9.4021   36.9255 C   0  0  0  0  0  0
   -9.6527   -3.4173   36.6945 C   0  0  0  0  0  0
   -5.1315   -8.6691   40.8766 C   0  0  0  0  0  0
   -5.1094   -7.9351   38.4831 C   0  0  0  0  0  0
   -5.9546   -8.0352   39.7564 C   0  0  2  0  0  0
   -5.0511   -9.2755   37.8037 N   0  3  0  0  0  0
   -6.1253   -6.2073   41.3230 O   0  0  0  0  0  0
   -8.1787   -7.5107   38.3277 H   0  0  0  0  0  0
   -6.5204   -3.9425   40.0867 H   0  0  0  0  0  0
   -9.5569   -6.1275   36.8247 H   0  0  0  0  0  0
   -7.8986   -2.5617   38.5831 H   0  0  0  0  0  0
   -4.9735  -12.2371   35.2909 H   0  0  0  0  0  0
   -5.1192  -10.5789   34.7115 H   0  0  0  0  0  0
   -7.1658  -11.1933   35.9066 H   0  0  0  0  0  0
   -6.2465  -11.7128   37.3160 H   0  0  0  0  0  0
   -3.5855  -11.5269   37.1790 H   0  0  0  0  0  0
   -2.8958  -10.8950   35.6867 H   0  0  0  0  0  0
   -6.4336   -8.8264   36.2622 H   0  0  0  0  0  0
   -7.1560   -9.4816   37.7629 H   0  0  0  0  0  0
   -2.9532   -9.1882   37.5469 H   0  0  0  0  0  0
   -3.9088   -8.6500   36.1325 H   0  0  0  0  0  0
  -10.6215   -3.1965   37.1589 H   0  0  0  0  0  0
   -9.1553   -2.4677   36.4587 H   0  0  0  0  0  0
   -9.8329   -3.9272   35.7391 H   0  0  0  0  0  0
   -4.2575   -8.0571   41.1226 H   0  0  0  0  0  0
   -4.7757   -9.6625   40.5838 H   0  0  0  0  0  0
   -5.7230   -8.7762   41.7929 H   0  0  0  0  0  0
   -4.0746   -7.6386   38.6805 H   0  0  0  0  0  0
   -5.5520   -7.2432   37.7599 H   0  0  0  0  0  0
   -6.8183   -8.6721   39.5369 H   0  0  0  0  0  0
   -4.9660   -9.9650   38.5230 H   0  0  0  0  0  0
  1  3  2  0  0  0
  1  5  1  0  0  0
  1 19  1  0  0  0
  2  4  1  0  0  0
  2  5  2  0  0  0
  2 20  1  0  0  0
  3  6  1  0  0  0
  3 21  1  0  0  0
  4  6  2  0  0  0
  4 22  1  0  0  0
  5  7  1  0  0  0
  6 13  1  0  0  0
  7 16  1  0  0  0
  7 18  2  0  0  0
  8  9  1  0  0  0
  8 10  1  0  0  0
  8 23  1  0  0  0
  8 24  1  0  0  0
  9 11  1  0  0  0
  9 25  1  0  0  0
  9 26  1  0  0  0
 10 12  1  0  0  0
 10 27  1  0  0  0
 10 28  1  0  0  0
 11 17  1  0  0  0
 11 29  1  0  0  0
 11 30  1  0  0  0
 12 17  1  0  0  0
 12 31  1  0  0  0
 12 32  1  0  0  0
 13 33  1  0  0  0
 13 34  1  0  0  0
 13 35  1  0  0  0
 14 16  1  0  0  0
 14 36  1  0  0  0
 14 37  1  0  0  0
 14 38  1  0  0  0
 15 16  1  0  0  0
 15 17  1  0  0  0
 15 39  1  0  0  0
 15 40  1  0  0  0
 16 41  1  0  0  0
 17 42  1  0  0  0
M  CHG  1  17   1
M  END
> <EON_Query>
60c

> <EON_ET_pb>
0.137

> <EON_ET_coul>
0.081

> <EON_ET_combo>
0.637

> <EON_ShapeTanimoto>
0.5

> <ROCS_ShapeQuery>
60c

> <ROCS_TanimotoCombo>
0.771

> <ROCS_ShapeTanimoto>
0.581

> <ROCS_ColorTanimoto>
0.19

> <ROCS_RefTversky>
0.595

> <ROCS_RefColorTversky>
0.26

> <ROCS_RefTverskyCombo>
0.855

> <ROCS_FitTversky>
0.962

> <ROCS_FitColorTversky>
0.412

> <ROCS_FitTverskyCombo>
1.374

> <ROCS_ColorScore>
-2.553

> <ROCS_Overlap>
765.015

> <ROCS_Rank>
896

> <EON_Rank>
398

> <i_qp_#stars>
0

> <i_qp_#amine>
1

> <i_qp_#amidine>
0

> <i_qp_#acid>
0

> <i_qp_#amide>
0

> <i_qp_#rotor>
4

> <i_qp_#rtvFG>
0

> <i_qp_CNS>
1

> <r_qp_mol_MW>
245.364

> <r_qp_dipole>
4.60448

> <r_qp_SASA>
533.091

> <r_qp_FOSA>
381.255

> <r_qp_FISA>
35.3978

> <r_qp_PISA>
116.439

> <r_qp_WPSA>
0

> <r_qp_volume>
928.049

> <r_qp_donorHB>
0

> <r_qp_accptHB>
4

> <r_qp_dip^2/V>
0.0228449

> <r_qp_ACxDN^.5/SA>
0

> <r_qp_glob>
0.863133

> <r_qp_QPpolrz>
29.5301

> <r_qp_QPlogPC16>
7.92736

> <r_qp_QPlogPoct>
11.3858

> <r_qp_QPlogPw>
5.09244

> <r_qp_QPlogPo/w>
2.74894

> <r_qp_QPlogS>
-2.17797

> <r_qp_CIQPlogS>
-1.77548

> <r_qp_QPlogHERG>
-5.02811

> <r_qp_QPPCaco>
1140.57

> <r_qp_QPlogBB>
0.404169

> <r_qp_QPPMDCK>
630.918

> <r_qp_QPlogKp>
-3.44026

> <r_qp_IP(eV)>
9.2128

> <r_qp_EA(eV)>
0.355938

> <i_qp_#metab>
3

> <r_qp_QPlogKhsa>
0.072286

> <i_qp_HumanOralAbsorption>
3

> <r_qp_PercentHumanOralAbsorption>
100

> <r_qp_SAfluorine>
0

> <r_qp_SAamideO>
0

> <r_qp_PSA>
28.9054

> <i_qp_#NandO>
2

> <i_qp_RuleOfFive>
0

> <i_qp_RuleOfThree>
0

> <i_qp_#ringatoms>
12

> <i_qp_#in34>
0

> <i_qp_#in56>
12

> <i_qp_#noncon>
5

> <i_qp_#nonHatm>
18

> <r_qp_Jm>
0.393886

> <stars>
0

> <logP>
2.74894

> <Caco>
1140.57

> <MDCK>
630.918

> <HumanOralAbsorption>
3

> <PercentHumanOralAbsorption>
100.0

> <RuleOfFive>
0

> <base>
fda.sdf

$$$$
Prilocaine.cdx_21
                    3D
 Schrodinger Suite 2022-3.
 37 37  0  0  1  0            999 V2000
   -8.1530   -3.6571   38.8579 C   0  0  0  0  0  0
   -7.6508   -4.5502   39.8043 C   0  0  0  0  0  0
   -8.5383   -4.1184   37.5990 C   0  0  0  0  0  0
   -7.5337   -5.9046   39.4919 C   0  0  0  0  0  0
   -8.4212   -5.4728   37.2868 C   0  0  0  0  0  0
   -7.9190   -6.3659   38.2332 C   0  0  0  0  0  0
   -6.8558   -8.6390   38.4433 C   0  0  0  0  0  0
   -8.8417   -5.9387   35.9306 C   0  0  0  0  0  0
   -4.2510  -11.3253   34.9177 C   0  0  0  0  0  0
   -6.5447  -11.1039   38.8184 C   0  0  0  0  0  0
   -4.3232   -9.8375   35.2209 C   0  0  0  0  0  0
   -4.9748   -9.5823   36.5706 C   0  0  0  0  0  0
   -7.0604  -10.0337   37.8687 C   0  0  2  0  0  0
   -7.7923   -7.7437   37.9355 N   0  0  0  0  0  0
   -6.3369  -10.1750   36.5730 N   0  3  0  0  0  0
   -5.9577   -8.4001   39.2452 O   0  0  0  0  0  0
   -8.2437   -2.6025   39.1004 H   0  0  0  0  0  0
   -7.3499   -4.1908   40.7841 H   0  0  0  0  0  0
   -8.9281   -3.4144   36.8687 H   0  0  0  0  0  0
   -7.1411   -6.5904   40.2382 H   0  0  0  0  0  0
   -7.9958   -5.8934   35.2353 H   0  0  0  0  0  0
   -9.2128   -6.9700   35.9641 H   0  0  0  0  0  0
   -9.6549   -5.3186   35.5339 H   0  0  0  0  0  0
   -3.6876  -11.8448   35.6991 H   0  0  0  0  0  0
   -5.2523  -11.7651   34.8713 H   0  0  0  0  0  0
   -3.7511  -11.5067   33.9607 H   0  0  0  0  0  0
   -5.4855  -10.9492   39.0500 H   0  0  0  0  0  0
   -6.6575  -12.1057   38.3886 H   0  0  0  0  0  0
   -7.0985  -11.0906   39.7633 H   0  0  0  0  0  0
   -4.8905   -9.3363   34.4276 H   0  0  0  0  0  0
   -3.3101   -9.4183   35.2061 H   0  0  0  0  0  0
   -4.4222  -10.0536   37.3886 H   0  0  0  0  0  0
   -5.0931   -8.5140   36.7737 H   0  0  0  0  0  0
   -8.1198  -10.1921   37.6397 H   0  0  0  0  0  0
   -8.4723   -8.1082   37.2718 H   0  0  0  0  0  0
   -6.8764   -9.7249   35.8615 H   0  0  0  0  0  0
   -6.2557  -11.1494   36.3634 H   0  0  0  0  0  0
  1  2  2  0  0  0
  1  3  1  0  0  0
  1 17  1  0  0  0
  2  4  1  0  0  0
  2 18  1  0  0  0
  3  5  2  0  0  0
  3 19  1  0  0  0
  4  6  2  0  0  0
  4 20  1  0  0  0
  5  6  1  0  0  0
  5  8  1  0  0  0
  6 14  1  0  0  0
  7 13  1  0  0  0
  7 14  1  0  0  0
  7 16  2  0  0  0
  8 21  1  0  0  0
  8 22  1  0  0  0
  8 23  1  0  0  0
  9 11  1  0  0  0
  9 24  1  0  0  0
  9 25  1  0  0  0
  9 26  1  0  0  0
 10 13  1  0  0  0
 10 27  1  0  0  0
 10 28  1  0  0  0
 10 29  1  0  0  0
 11 12  1  0  0  0
 11 30  1  0  0  0
 11 31  1  0  0  0
 12 15  1  0  0  0
 12 32  1  0  0  0
 12 33  1  0  0  0
 13 15  1  0  0  0
 13 34  1  0  0  0
 14 35  1  0  0  0
 15 36  1  0  0  0
 15 37  1  0  0  0
M  CHG  1  15   1
M  END
> <EON_Query>
60c

> <EON_ET_pb>
0.098

> <EON_ET_coul>
0.075

> <EON_ET_combo>
0.637

> <EON_ShapeTanimoto>
0.539

> <ROCS_ShapeQuery>
60c

> <ROCS_TanimotoCombo>
0.627

> <ROCS_ShapeTanimoto>
0.485

> <ROCS_ColorTanimoto>
0.142

> <ROCS_RefTversky>
0.506

> <ROCS_RefColorTversky>
0.203

> <ROCS_RefTverskyCombo>
0.709

> <ROCS_FitTversky>
0.92

> <ROCS_FitColorTversky>
0.321

> <ROCS_FitTverskyCombo>
1.241

> <ROCS_ColorScore>
-1.989

> <ROCS_Overlap>
648.37

> <ROCS_Rank>
2609

> <EON_Rank>
403

> <i_qp_#stars>
0

> <i_qp_#amine>
1

> <i_qp_#amidine>
0

> <i_qp_#acid>
0

> <i_qp_#amide>
0

> <i_qp_#rotor>
5

> <i_qp_#rtvFG>
0

> <i_qp_CNS>
1

> <r_qp_mol_MW>
220.314

> <r_qp_dipole>
4.72313

> <r_qp_SASA>
504.822

> <r_qp_FOSA>
312.064

> <r_qp_FISA>
34.6368

> <r_qp_PISA>
158.121

> <r_qp_WPSA>
0

> <r_qp_volume>
851.054

> <r_qp_donorHB>
2

> <r_qp_accptHB>
4

> <r_qp_dip^2/V>
0.0262122

> <r_qp_ACxDN^.5/SA>
0.0112056

> <r_qp_glob>
0.860329

> <r_qp_QPpolrz>
26.2047

> <r_qp_QPlogPC16>
7.89577

> <r_qp_QPlogPoct>
13.1802

> <r_qp_QPlogPw>
8.0114

> <r_qp_QPlogPo/w>
2.05832

> <r_qp_QPlogS>
-1.90745

> <r_qp_CIQPlogS>
-1.42576

> <r_qp_QPlogHERG>
-5.27225

> <r_qp_QPPCaco>
1159.68

> <r_qp_QPlogBB>
0.348691

> <r_qp_QPPMDCK>
642.351

> <r_qp_QPlogKp>
-3.18339

> <r_qp_IP(eV)>
8.79485

> <r_qp_EA(eV)>
-0.13932

> <i_qp_#metab>
4

> <r_qp_QPlogKhsa>
-0.0772777

> <i_qp_HumanOralAbsorption>
3

> <r_qp_PercentHumanOralAbsorption>
93.8435

> <r_qp_SAfluorine>
0

> <r_qp_SAamideO>
0

> <r_qp_PSA>
41.1547

> <i_qp_#NandO>
3

> <i_qp_RuleOfFive>
0

> <i_qp_RuleOfThree>
0

> <i_qp_#ringatoms>
6

> <i_qp_#in34>
0

> <i_qp_#in56>
6

> <i_qp_#noncon>
0

> <i_qp_#nonHatm>
16

> <r_qp_Jm>
1.53835

> <stars>
0

> <logP>
2.05832

> <Caco>
1159.68

> <MDCK>
642.351

> <HumanOralAbsorption>
3

> <PercentHumanOralAbsorption>
93.8435

> <RuleOfFive>
0

> <base>
fda.sdf

$$$$
S5482 Prilocaine hydrochloride.cdx_21
                    3D
 Schrodinger Suite 2022-3.
 37 37  0  0  1  0            999 V2000
   -8.1530   -3.6571   38.8579 C   0  0  0  0  0  0
   -7.6508   -4.5502   39.8043 C   0  0  0  0  0  0
   -8.5383   -4.1184   37.5990 C   0  0  0  0  0  0
   -7.5337   -5.9046   39.4919 C   0  0  0  0  0  0
   -8.4212   -5.4728   37.2868 C   0  0  0  0  0  0
   -7.9190   -6.3659   38.2332 C   0  0  0  0  0  0
   -6.8558   -8.6390   38.4433 C   0  0  0  0  0  0
   -8.8417   -5.9387   35.9306 C   0  0  0  0  0  0
   -4.2510  -11.3253   34.9177 C   0  0  0  0  0  0
   -6.5447  -11.1039   38.8184 C   0  0  0  0  0  0
   -4.3232   -9.8375   35.2209 C   0  0  0  0  0  0
   -4.9748   -9.5823   36.5706 C   0  0  0  0  0  0
   -7.0604  -10.0337   37.8687 C   0  0  2  0  0  0
   -7.7923   -7.7437   37.9355 N   0  0  0  0  0  0
   -6.3369  -10.1750   36.5730 N   0  3  0  0  0  0
   -5.9577   -8.4001   39.2452 O   0  0  0  0  0  0
   -8.2437   -2.6025   39.1004 H   0  0  0  0  0  0
   -7.3499   -4.1908   40.7841 H   0  0  0  0  0  0
   -8.9281   -3.4144   36.8687 H   0  0  0  0  0  0
   -7.1411   -6.5904   40.2382 H   0  0  0  0  0  0
   -7.9958   -5.8934   35.2353 H   0  0  0  0  0  0
   -9.2128   -6.9700   35.9641 H   0  0  0  0  0  0
   -9.6549   -5.3186   35.5339 H   0  0  0  0  0  0
   -3.6876  -11.8448   35.6991 H   0  0  0  0  0  0
   -5.2523  -11.7651   34.8713 H   0  0  0  0  0  0
   -3.7511  -11.5067   33.9607 H   0  0  0  0  0  0
   -5.4855  -10.9492   39.0500 H   0  0  0  0  0  0
   -6.6575  -12.1057   38.3886 H   0  0  0  0  0  0
   -7.0985  -11.0906   39.7633 H   0  0  0  0  0  0
   -4.8905   -9.3363   34.4276 H   0  0  0  0  0  0
   -3.3101   -9.4183   35.2061 H   0  0  0  0  0  0
   -4.4222  -10.0536   37.3886 H   0  0  0  0  0  0
   -5.0931   -8.5140   36.7737 H   0  0  0  0  0  0
   -8.1198  -10.1921   37.6397 H   0  0  0  0  0  0
   -8.4723   -8.1082   37.2718 H   0  0  0  0  0  0
   -6.8764   -9.7249   35.8615 H   0  0  0  0  0  0
   -6.2557  -11.1494   36.3634 H   0  0  0  0  0  0
  1  2  2  0  0  0
  1  3  1  0  0  0
  1 17  1  0  0  0
  2  4  1  0  0  0
  2 18  1  0  0  0
  3  5  2  0  0  0
  3 19  1  0  0  0
  4  6  2  0  0  0
  4 20  1  0  0  0
  5  6  1  0  0  0
  5  8  1  0  0  0
  6 14  1  0  0  0
  7 13  1  0  0  0
  7 14  1  0  0  0
  7 16  2  0  0  0
  8 21  1  0  0  0
  8 22  1  0  0  0
  8 23  1  0  0  0
  9 11  1  0  0  0
  9 24  1  0  0  0
  9 25  1  0  0  0
  9 26  1  0  0  0
 10 13  1  0  0  0
 10 27  1  0  0  0
 10 28  1  0  0  0
 10 29  1  0  0  0
 11 12  1  0  0  0
 11 30  1  0  0  0
 11 31  1  0  0  0
 12 15  1  0  0  0
 12 32  1  0  0  0
 12 33  1  0  0  0
 13 15  1  0  0  0
 13 34  1  0  0  0
 14 35  1  0  0  0
 15 36  1  0  0  0
 15 37  1  0  0  0
M  CHG  1  15   1
M  END
> <EON_Query>
60c

> <EON_ET_pb>
0.098

> <EON_ET_coul>
0.075

> <EON_ET_combo>
0.637

> <EON_ShapeTanimoto>
0.539

> <ROCS_ShapeQuery>
60c

> <ROCS_TanimotoCombo>
0.627

> <ROCS_ShapeTanimoto>
0.485

> <ROCS_ColorTanimoto>
0.142

> <ROCS_RefTversky>
0.506

> <ROCS_RefColorTversky>
0.203

> <ROCS_RefTverskyCombo>
0.709

> <ROCS_FitTversky>
0.92

> <ROCS_FitColorTversky>
0.321

> <ROCS_FitTverskyCombo>
1.241

> <ROCS_ColorScore>
-1.989

> <ROCS_Overlap>
648.37

> <ROCS_Rank>
2610

> <EON_Rank>
404

> <i_qp_#stars>
0

> <i_qp_#amine>
1

> <i_qp_#amidine>
0

> <i_qp_#acid>
0

> <i_qp_#amide>
0

> <i_qp_#rotor>
5

> <i_qp_#rtvFG>
0

> <i_qp_CNS>
1

> <r_qp_mol_MW>
220.314

> <r_qp_dipole>
4.72313

> <r_qp_SASA>
504.822

> <r_qp_FOSA>
312.064

> <r_qp_FISA>
34.6368

> <r_qp_PISA>
158.121

> <r_qp_WPSA>
0

> <r_qp_volume>
851.054

> <r_qp_donorHB>
2

> <r_qp_accptHB>
4

> <r_qp_dip^2/V>
0.0262122

> <r_qp_ACxDN^.5/SA>
0.0112056

> <r_qp_glob>
0.860329

> <r_qp_QPpolrz>
26.2047

> <r_qp_QPlogPC16>
7.89577

> <r_qp_QPlogPoct>
13.1802

> <r_qp_QPlogPw>
8.0114

> <r_qp_QPlogPo/w>
2.05832

> <r_qp_QPlogS>
-1.90745

> <r_qp_CIQPlogS>
-1.42576

> <r_qp_QPlogHERG>
-5.27225

> <r_qp_QPPCaco>
1159.68

> <r_qp_QPlogBB>
0.348691

> <r_qp_QPPMDCK>
642.351

> <r_qp_QPlogKp>
-3.18339

> <r_qp_IP(eV)>
8.79485

> <r_qp_EA(eV)>
-0.13932

> <i_qp_#metab>
4

> <r_qp_QPlogKhsa>
-0.0772777

> <i_qp_HumanOralAbsorption>
3

> <r_qp_PercentHumanOralAbsorption>
93.8435

> <r_qp_SAfluorine>
0

> <r_qp_SAamideO>
0

> <r_qp_PSA>
41.1547

> <i_qp_#NandO>
3

> <i_qp_RuleOfFive>
0

> <i_qp_RuleOfThree>
0

> <i_qp_#ringatoms>
6

> <i_qp_#in34>
0

> <i_qp_#in56>
6

> <i_qp_#noncon>
0

> <i_qp_#nonHatm>
16

> <r_qp_Jm>
1.53835

> <stars>
0

> <logP>
2.05832

> <Caco>
1159.68

> <MDCK>
642.351

> <HumanOralAbsorption>
3

> <PercentHumanOralAbsorption>
93.8435

> <RuleOfFive>
0

> <base>
fda.sdf

$$$$
Azaperone.cdx_216
                    3D
 Schrodinger Suite 2022-3.
 47 49  0  0  1  0            999 V2000
   -5.2744  -13.7455   32.7180 C   0  0  0  0  0  0
   -5.4828  -14.8791   33.4955 C   0  0  0  0  0  0
   -8.4702   -6.2093   38.8464 C   0  0  0  0  0  0
   -7.1656   -4.2347   39.3321 C   0  0  0  0  0  0
   -9.1878   -5.4987   37.8844 C   0  0  0  0  0  0
   -7.8833   -3.5240   38.3699 C   0  0  0  0  0  0
   -4.8666  -12.5609   33.3212 C   0  0  0  0  0  0
   -5.2711  -14.7769   34.8610 C   0  0  0  0  0  0
   -7.4591   -5.5773   39.5704 C   0  0  0  0  0  0
   -8.8943   -4.1560   37.6461 C   0  0  0  0  0  0
   -4.6827  -12.5624   34.6945 C   0  0  0  0  0  0
   -6.6913   -6.3381   40.5998 C   0  0  0  0  0  0
   -5.0699  -10.1432   35.1964 C   0  0  0  0  0  0
   -3.2937  -11.3717   36.3732 C   0  0  0  0  0  0
   -5.8413   -9.9414   36.4952 C   0  0  0  0  0  0
   -4.0252  -11.1943   37.7022 C   0  0  0  0  0  0
   -6.4950   -7.8342   40.4071 C   0  0  0  0  0  0
   -5.7588   -8.1580   39.1061 C   0  0  0  0  0  0
   -5.5410   -9.6565   38.9600 C   0  0  0  0  0  0
   -4.8750  -13.6438   35.4828 N   0  0  0  0  0  0
   -4.2748  -11.3701   35.2832 N   0  0  0  0  0  0
   -4.8580   -9.9292   37.6494 N   0  3  0  0  0  0
   -6.2370   -5.7402   41.5727 O   0  0  0  0  0  0
   -9.5833   -3.4736   36.7221 F   0  0  0  0  0  0
   -5.4307  -13.7846   31.6439 H   0  0  0  0  0  0
   -5.8012  -15.8134   33.0472 H   0  0  0  0  0  0
   -8.7071   -7.2551   39.0239 H   0  0  0  0  0  0
   -6.3792   -3.7322   39.8899 H   0  0  0  0  0  0
   -9.9749   -5.9905   37.3206 H   0  0  0  0  0  0
   -7.6551   -2.4783   38.1845 H   0  0  0  0  0  0
   -4.7010  -11.6716   32.7219 H   0  0  0  0  0  0
   -5.4194  -15.6325   35.5117 H   0  0  0  0  0  0
   -5.7850  -10.2096   34.3725 H   0  0  0  0  0  0
   -4.4166   -9.2858   35.0117 H   0  0  0  0  0  0
   -2.5759  -10.5633   36.2317 H   0  0  0  0  0  0
   -2.7513  -12.3166   36.3971 H   0  0  0  0  0  0
   -6.3589   -8.9801   36.4935 H   0  0  0  0  0  0
   -6.5530  -10.7504   36.6797 H   0  0  0  0  0  0
   -4.7064  -12.0263   37.9053 H   0  0  0  0  0  0
   -3.3137  -11.0874   38.5251 H   0  0  0  0  0  0
   -5.9141   -8.2214   41.2518 H   0  0  0  0  0  0
   -7.4796   -8.3151   40.3909 H   0  0  0  0  0  0
   -6.3339   -7.7792   38.2517 H   0  0  0  0  0  0
   -4.7931   -7.6368   39.0899 H   0  0  0  0  0  0
   -6.4855  -10.2082   38.9464 H   0  0  0  0  0  0
   -4.8920  -10.0552   39.7453 H   0  0  0  0  0  0
   -4.2261   -9.1718   37.4849 H   0  0  0  0  0  0
  1  2  2  0  0  0
  1  7  1  0  0  0
  1 25  1  0  0  0
  2  8  1  0  0  0
  2 26  1  0  0  0
  3  5  2  0  0  0
  3  9  1  0  0  0
  3 27  1  0  0  0
  4  6  1  0  0  0
  4  9  2  0  0  0
  4 28  1  0  0  0
  5 10  1  0  0  0
  5 29  1  0  0  0
  6 10  2  0  0  0
  6 30  1  0  0  0
  7 11  2  0  0  0
  7 31  1  0  0  0
  8 20  2  0  0  0
  8 32  1  0  0  0
  9 12  1  0  0  0
 10 24  1  0  0  0
 11 20  1  0  0  0
 11 21  1  0  0  0
 12 17  1  0  0  0
 12 23  2  0  0  0
 13 15  1  0  0  0
 13 21  1  0  0  0
 13 33  1  0  0  0
 13 34  1  0  0  0
 14 16  1  0  0  0
 14 21  1  0  0  0
 14 35  1  0  0  0
 14 36  1  0  0  0
 15 22  1  0  0  0
 15 37  1  0  0  0
 15 38  1  0  0  0
 16 22  1  0  0  0
 16 39  1  0  0  0
 16 40  1  0  0  0
 17 18  1  0  0  0
 17 41  1  0  0  0
 17 42  1  0  0  0
 18 19  1  0  0  0
 18 43  1  0  0  0
 18 44  1  0  0  0
 19 22  1  0  0  0
 19 45  1  0  0  0
 19 46  1  0  0  0
 22 47  1  0  0  0
M  CHG  1  22   1
M  END
> <EON_Query>
60c

> <EON_ET_pb>
0.119

> <EON_ET_coul>
0.09

> <EON_ET_combo>
0.637

> <EON_ShapeTanimoto>
0.517

> <ROCS_ShapeQuery>
60c

> <ROCS_TanimotoCombo>
0.88

> <ROCS_ShapeTanimoto>
0.604

> <ROCS_ColorTanimoto>
0.276

> <ROCS_RefTversky>
0.688

> <ROCS_RefColorTversky>
0.373

> <ROCS_RefTverskyCombo>
1.062

> <ROCS_FitTversky>
0.832

> <ROCS_FitColorTversky>
0.515

> <ROCS_FitTverskyCombo>
1.346

> <ROCS_ColorScore>
-3.679

> <ROCS_Overlap>
895.519

> <ROCS_Rank>
142

> <EON_Rank>
406

> <i_qp_#stars>
0

> <i_qp_#amine>
1

> <i_qp_#amidine>
0

> <i_qp_#acid>
0

> <i_qp_#amide>
0

> <i_qp_#rotor>
5

> <i_qp_#rtvFG>
0

> <i_qp_CNS>
1

> <r_qp_mol_MW>
327.401

> <r_qp_dipole>
4.54477

> <r_qp_SASA>
631.28

> <r_qp_FOSA>
221.492

> <r_qp_FISA>
53.579

> <r_qp_PISA>
309.596

> <r_qp_WPSA>
46.6126

> <r_qp_volume>
1104.58

> <r_qp_donorHB>
0

> <r_qp_accptHB>
5.5

> <r_qp_dip^2/V>
0.0186994

> <r_qp_ACxDN^.5/SA>
0

> <r_qp_glob>
0.818603

> <r_qp_QPpolrz>
37.7973

> <r_qp_QPlogPC16>
10.7155

> <r_qp_QPlogPoct>
15.5281

> <r_qp_QPlogPw>
8.0395

> <r_qp_QPlogPo/w>
3.46291

> <r_qp_QPlogS>
-3.44522

> <r_qp_CIQPlogS>
-3.24636

> <r_qp_QPlogHERG>
-6.6698

> <r_qp_QPPCaco>
766.85

> <r_qp_QPlogBB>
0.242005

> <r_qp_QPPMDCK>
739.536

> <r_qp_QPlogKp>
-2.9989

> <r_qp_IP(eV)>
8.58875

> <r_qp_EA(eV)>
0.628247

> <i_qp_#metab>
3

> <r_qp_QPlogKhsa>
0.141033

> <i_qp_HumanOralAbsorption>
3

> <r_qp_PercentHumanOralAbsorption>
100

> <r_qp_SAfluorine>
46.6126

> <r_qp_SAamideO>
0

> <r_qp_PSA>
45.7558

> <i_qp_#NandO>
4

> <i_qp_RuleOfFive>
0

> <i_qp_RuleOfThree>
0

> <i_qp_#ringatoms>
18

> <i_qp_#in34>
0

> <i_qp_#in56>
18

> <i_qp_#noncon>
4

> <i_qp_#nonHatm>
24

> <r_qp_Jm>
0.111262

> <stars>
0

> <logP>
3.46291

> <Caco>
766.85

> <MDCK>
739.536

> <HumanOralAbsorption>
3

> <PercentHumanOralAbsorption>
100.0

> <RuleOfFive>
0

> <base>
fda.sdf

$$$$
Molecule_7
                    3D
 Schrodinger Suite 2022-3.
 29 29  0  0  1  0            999 V2000
   -6.3439  -10.5579   40.9405 C   0  0  0  0  0  0
   -5.3994  -10.5389   39.7323 C   0  0  0  0  0  0
   -6.4137   -9.2073   41.6459 C   0  0  0  0  0  0
   -5.0028   -9.6377   37.5463 C   0  0  0  0  0  0
   -7.4319   -5.8121   38.6846 C   0  0  0  0  0  0
   -5.4505  -10.7956   36.6702 C   0  0  0  0  0  0
   -8.4952   -5.2561   37.7526 C   0  0  0  0  0  0
   -5.8067   -9.5095   38.7629 N   0  0  2  0  0  0
   -7.0719   -7.1843   38.3659 N   0  0  1  0  0  0
   -4.7562   -7.2183   39.7005 O   0  0  0  0  0  0
   -6.8936   -8.2169   40.7439 O   0  0  0  0  0  0
   -6.0252   -7.9726   39.3841 P   0  0  2  0  0  0
   -4.4512  -10.9206   35.2013 Cl  0  0  0  0  0  0
   -8.9105   -3.5759   38.1724 Cl  0  0  0  0  0  0
   -7.3470  -10.8511   40.6124 H   0  0  0  0  0  0
   -5.9936  -11.3178   41.6503 H   0  0  0  0  0  0
   -4.3845  -10.3391   40.0975 H   0  0  0  0  0  0
   -5.3932  -11.5263   39.2542 H   0  0  0  0  0  0
   -7.0665   -9.2477   42.5214 H   0  0  0  0  0  0
   -5.4176   -8.9056   41.9772 H   0  0  0  0  0  0
   -5.0554   -8.6859   37.0079 H   0  0  0  0  0  0
   -3.9674   -9.7903   37.8665 H   0  0  0  0  0  0
   -7.7622   -5.7859   39.7281 H   0  0  0  0  0  0
   -6.5163   -5.2181   38.6030 H   0  0  0  0  0  0
   -6.4916  -10.6791   36.3541 H   0  0  0  0  0  0
   -5.3536  -11.7416   37.2108 H   0  0  0  0  0  0
   -9.4155   -5.8462   37.7979 H   0  0  0  0  0  0
   -8.1329   -5.2532   36.7206 H   0  0  0  0  0  0
   -7.9202   -7.6932   38.1188 H   0  0  0  0  0  0
  1  2  1  0  0  0
  1  3  1  0  0  0
  1 15  1  0  0  0
  1 16  1  0  0  0
  2  8  1  0  0  0
  2 17  1  0  0  0
  2 18  1  0  0  0
  3 11  1  0  0  0
  3 19  1  0  0  0
  3 20  1  0  0  0
  4  6  1  0  0  0
  4  8  1  0  0  0
  4 21  1  0  0  0
  4 22  1  0  0  0
  5  7  1  0  0  0
  5  9  1  0  0  0
  5 23  1  0  0  0
  5 24  1  0  0  0
  6 13  1  0  0  0
  6 25  1  0  0  0
  6 26  1  0  0  0
  7 14  1  0  0  0
  7 27  1  0  0  0
  7 28  1  0  0  0
  8 12  1  0  0  0
  9 12  1  0  0  0
  9 29  1  0  0  0
 10 12  2  0  0  0
 11 12  1  0  0  0
M  END
> <EON_Query>
60c

> <EON_ET_pb>
0.171

> <EON_ET_coul>
0.21

> <EON_ET_combo>
0.635

> <EON_ShapeTanimoto>
0.464

> <ROCS_ShapeQuery>
60c

> <ROCS_TanimotoCombo>
0.623

> <ROCS_ShapeTanimoto>
0.523

> <ROCS_ColorTanimoto>
0.1

> <ROCS_RefTversky>
0.498

> <ROCS_RefColorTversky>
0.105

> <ROCS_RefTverskyCombo>
0.603

> <ROCS_FitTversky>
1.105

> <ROCS_FitColorTversky>
0.689

> <ROCS_FitTverskyCombo>
1.794

> <ROCS_ColorScore>
-1

> <ROCS_Overlap>
634.564

> <ROCS_Rank>
2634

> <EON_Rank>
413

> <i_qp_#stars>
0

> <i_qp_#amine>
0

> <i_qp_#amidine>
0

> <i_qp_#acid>
0

> <i_qp_#amide>
0

> <i_qp_#rotor>
3

> <i_qp_#rtvFG>
1

> <i_qp_CNS>
0

> <r_qp_mol_MW>
261.087

> <r_qp_dipole>
6.49648

> <r_qp_SASA>
479.699

> <r_qp_FOSA>
292.518

> <r_qp_FISA>
39.6085

> <r_qp_PISA>
0

> <r_qp_WPSA>
147.572

> <r_qp_volume>
783.957

> <r_qp_donorHB>
1

> <r_qp_accptHB>
8.5

> <r_qp_dip^2/V>
0.0538349

> <r_qp_ACxDN^.5/SA>
0.0177194

> <r_qp_glob>
0.857151

> <r_qp_QPpolrz>
23.2937

> <r_qp_QPlogPC16>
6.92732

> <r_qp_QPlogPoct>
14.0627

> <r_qp_QPlogPw>
10.3698

> <r_qp_QPlogPo/w>
1.04513

> <r_qp_QPlogS>
-2.38141

> <r_qp_CIQPlogS>
-1.36837

> <r_qp_QPlogHERG>
-3.84344

> <r_qp_QPPCaco>
4171.5

> <r_qp_QPlogBB>
0.385429

> <r_qp_QPPMDCK>
10000

> <r_qp_QPlogKp>
-1.96146

> <r_qp_IP(eV)>
9.83719

> <r_qp_EA(eV)>
0.0525158

> <i_qp_#metab>
2

> <r_qp_QPlogKhsa>
-0.923356

> <i_qp_HumanOralAbsorption>
3

> <r_qp_PercentHumanOralAbsorption>
100

> <r_qp_SAfluorine>
0

> <r_qp_SAamideO>
0

> <r_qp_PSA>
44.7031

> <i_qp_#NandO>
4

> <i_qp_RuleOfFive>
0

> <i_qp_RuleOfThree>
0

> <i_qp_#ringatoms>
6

> <i_qp_#in34>
0

> <i_qp_#in56>
6

> <i_qp_#noncon>
4

> <i_qp_#nonHatm>
14

> <r_qp_Jm>
11.8556

> <stars>
0

> <logP>
1.04513

> <Caco>
4171.5

> <MDCK>
10000.0

> <HumanOralAbsorption>
3

> <PercentHumanOralAbsorption>
100.0

> <RuleOfFive>
0

> <base>
fda.sdf

$$$$
Atovaquone_4
                    3D
 Schrodinger Suite 2022-3.
 45 48  0  0  1  0            999 V2000
   -6.9592   -1.2008   39.2710 C   0  0  0  0  0  0
   -6.3454   -1.8292   40.3510 C   0  0  0  0  0  0
   -7.7259   -1.9456   38.3754 C   0  0  0  0  0  0
   -6.4946   -3.2041   40.5363 C   0  0  0  0  0  0
   -4.5919  -11.7925   36.9273 C   0  0  0  0  0  0
   -4.4051  -10.0264   35.2893 C   0  0  0  0  0  0
   -3.6466  -12.5420   36.2272 C   0  0  0  0  0  0
   -3.4597  -10.7760   34.5891 C   0  0  0  0  0  0
   -7.8794   -3.3260   38.5601 C   0  0  0  0  0  0
   -7.2620   -3.9596   39.6386 C   0  0  0  0  0  0
   -4.9712  -10.5348   36.4584 C   0  0  0  0  0  0
   -3.0805  -12.0337   35.0581 C   0  0  0  0  0  0
   -8.7093   -4.0775   37.6096 C   0  0  0  0  0  0
   -7.3837   -5.4186   39.8552 C   0  0  0  0  0  0
   -8.9629   -5.5354   37.8386 C   0  0  0  0  0  0
   -6.7721   -8.8345   36.2398 C   0  0  0  0  0  0
   -5.2906   -8.8887   38.2942 C   0  0  0  0  0  0
   -7.7673   -7.9451   36.9846 C   0  0  0  0  0  0
   -6.2892   -7.9991   39.0342 C   0  0  0  0  0  0
   -5.9832   -9.7304   37.2094 C   0  0  2  0  0  0
   -8.0968   -6.2629   38.8253 C   0  0  1  0  0  0
   -7.0769   -7.1058   38.0674 C   0  0  2  0  0  0
   -9.2274   -3.5606   36.6311 O   0  0  0  0  0  0
   -6.8747   -5.9332   40.8492 O   0  0  0  0  0  0
   -9.8356   -6.0746   37.1703 O   0  0  0  0  0  0
   -1.9142  -12.9584   34.1947 Cl  0  0  0  0  0  0
   -6.8381   -0.1318   39.1230 H   0  0  0  0  0  0
   -5.7518   -1.2493   41.0515 H   0  0  0  0  0  0
   -8.1905   -1.4346   37.5356 H   0  0  0  0  0  0
   -6.0097   -3.6673   41.3924 H   0  0  0  0  0  0
   -5.0286  -12.1956   37.8372 H   0  0  0  0  0  0
   -4.6949   -9.0473   34.9173 H   0  0  0  0  0  0
   -3.3605  -13.5203   36.6048 H   0  0  0  0  0  0
   -3.0271  -10.3670   33.6796 H   0  0  0  0  0  0
   -7.3114   -9.4518   35.5104 H   0  0  0  0  0  0
   -6.0834   -8.2021   35.6636 H   0  0  0  0  0  0
   -4.5106   -8.2597   37.8446 H   0  0  0  0  0  0
   -4.7848   -9.5447   39.0137 H   0  0  0  0  0  0
   -8.2704   -7.2873   36.2658 H   0  0  0  0  0  0
   -8.5443   -8.5744   37.4371 H   0  0  0  0  0  0
   -6.9798   -8.6316   39.6067 H   0  0  0  0  0  0
   -5.7502   -7.3794   39.7607 H   0  0  0  0  0  0
   -6.6742  -10.4351   37.6881 H   0  0  0  0  0  0
   -8.7528   -6.9548   39.3785 H   0  0  0  0  0  0
   -6.3724   -6.4209   37.5774 H   0  0  0  0  0  0
  1  2  2  0  0  0
  1  3  1  0  0  0
  1 27  1  0  0  0
  2  4  1  0  0  0
  2 28  1  0  0  0
  3  9  2  0  0  0
  3 29  1  0  0  0
  4 10  2  0  0  0
  4 30  1  0  0  0
  5  7  2  0  0  0
  5 11  1  0  0  0
  5 31  1  0  0  0
  6  8  1  0  0  0
  6 11  2  0  0  0
  6 32  1  0  0  0
  7 12  1  0  0  0
  7 33  1  0  0  0
  8 12  2  0  0  0
  8 34  1  0  0  0
  9 10  1  0  0  0
  9 13  1  0  0  0
 10 14  1  0  0  0
 11 20  1  0  0  0
 12 26  1  0  0  0
 13 15  1  0  0  0
 13 23  2  0  0  0
 14 21  1  0  0  0
 14 24  2  0  0  0
 15 21  1  0  0  0
 15 25  2  0  0  0
 16 18  1  0  0  0
 16 20  1  0  0  0
 16 35  1  0  0  0
 16 36  1  0  0  0
 17 19  1  0  0  0
 17 20  1  0  0  0
 17 37  1  0  0  0
 17 38  1  0  0  0
 18 22  1  0  0  0
 18 39  1  0  0  0
 18 40  1  0  0  0
 19 22  1  0  0  0
 19 41  1  0  0  0
 19 42  1  0  0  0
 20 43  1  0  0  0
 21 22  1  0  0  0
 21 44  1  0  0  0
 22 45  1  0  0  0
M  END
> <EON_Query>
60c

> <EON_ET_pb>
0.058

> <EON_ET_coul>
0.027

> <EON_ET_combo>
0.631

> <EON_ShapeTanimoto>
0.573

> <ROCS_ShapeQuery>
60c

> <ROCS_TanimotoCombo>
0.793

> <ROCS_ShapeTanimoto>
0.577

> <ROCS_ColorTanimoto>
0.216

> <ROCS_RefTversky>
0.698

> <ROCS_RefColorTversky>
0.323

> <ROCS_RefTverskyCombo>
1.021

> <ROCS_FitTversky>
0.77

> <ROCS_FitColorTversky>
0.394

> <ROCS_FitTverskyCombo>
1.164

> <ROCS_ColorScore>
-3.198

> <ROCS_Overlap>
911.393

> <ROCS_Rank>
690

> <EON_Rank>
441

> <i_qp_#stars>
0

> <i_qp_#amine>
0

> <i_qp_#amidine>
0

> <i_qp_#acid>
0

> <i_qp_#amide>
0

> <i_qp_#rotor>
0

> <i_qp_#rtvFG>
2

> <i_qp_CNS>
0

> <r_qp_mol_MW>
366.843

> <r_qp_dipole>
5.39068

> <r_qp_SASA>
596.859

> <r_qp_FOSA>
132.519

> <r_qp_FISA>
101.22

> <r_qp_PISA>
291.572

> <r_qp_WPSA>
71.5488

> <r_qp_volume>
1089.13

> <r_qp_donorHB>
0

> <r_qp_accptHB>
6

> <r_qp_dip^2/V>
0.0266813

> <r_qp_ACxDN^.5/SA>
0

> <r_qp_glob>
0.857723

> <r_qp_QPpolrz>
40.2176

> <r_qp_QPlogPC16>
11.6418

> <r_qp_QPlogPoct>
17.3909

> <r_qp_QPlogPw>
9.76235

> <r_qp_QPlogPo/w>
3.39245

> <r_qp_QPlogS>
-4.69796

> <r_qp_CIQPlogS>
-4.94556

> <r_qp_QPlogHERG>
-5.22469

> <r_qp_QPPCaco>
1086.51

> <r_qp_QPlogBB>
-0.178198

> <r_qp_QPPMDCK>
1334.26

> <r_qp_QPlogKp>
-2.35786

> <r_qp_IP(eV)>
9.32778

> <r_qp_EA(eV)>
1.47254

> <i_qp_#metab>
2

> <r_qp_QPlogKhsa>
0.174752

> <i_qp_HumanOralAbsorption>
3

> <r_qp_PercentHumanOralAbsorption>
100

> <r_qp_SAfluorine>
0

> <r_qp_SAamideO>
0

> <r_qp_PSA>
71.2819

> <i_qp_#NandO>
3

> <i_qp_RuleOfFive>
0

> <i_qp_RuleOfThree>
0

> <i_qp_#ringatoms>
22

> <i_qp_#in34>
0

> <i_qp_#in56>
22

> <i_qp_#noncon>
7

> <i_qp_#nonHatm>
26

> <r_qp_Jm>
0.0322598

> <stars>
0

> <logP>
3.39245

> <Caco>
1086.51

> <MDCK>
1334.26

> <HumanOralAbsorption>
3

> <PercentHumanOralAbsorption>
100.0

> <RuleOfFive>
0

> <base>
fda.sdf

$$$$
S4931 Propiverine hydrochloride.cdx_23
                    3D
 Schrodinger Suite 2022-3.
 57 59  0  0  1  0            999 V2000
   -9.9382   -9.3449   42.1944 C   0  0  0  0  0  0
   -8.6703   -4.0597   37.6002 C   0  0  0  0  0  0
  -10.2098   -8.0272   41.8269 C   0  0  0  0  0  0
   -8.6841   -9.8974   41.9338 C   0  0  0  0  0  0
   -8.8978   -5.4201   37.3926 C   0  0  0  0  0  0
   -7.8695   -3.6407   38.6628 C   0  0  0  0  0  0
   -9.2274   -7.2617   41.1986 C   0  0  0  0  0  0
   -7.7017   -9.1320   41.3056 C   0  0  0  0  0  0
   -8.3247   -6.3616   38.2474 C   0  0  0  0  0  0
   -7.2963   -4.5821   39.5177 C   0  0  0  0  0  0
   -7.9733   -7.8142   40.9380 C   0  0  0  0  0  0
   -7.5239   -5.9426   39.3100 C   0  0  0  0  0  0
   -5.8019   -7.8030   39.5681 C   0  0  0  0  0  0
   -4.8942   -8.7650   36.7214 C   0  0  0  0  0  0
   -6.1251  -10.7948   37.5541 C   0  0  0  0  0  0
   -3.9966   -9.6581   35.8792 C   0  0  0  0  0  0
   -5.2249  -11.6833   36.7099 C   0  0  0  0  0  0
   -5.4270   -9.4962   37.9500 C   0  0  2  0  0  0
   -3.3722   -6.5816   42.1844 C   0  0  0  0  0  0
   -3.9506  -11.7793   34.5682 C   0  0  0  0  0  0
   -4.6000   -6.6331   43.0758 C   0  0  0  0  0  0
   -5.8192   -7.1540   42.3301 C   0  0  0  0  0  0
   -6.8949   -6.9749   40.2484 C   0  0  0  0  0  0
   -4.7504  -10.9116   35.5008 N   0  3  2  0  0  0
   -4.6093   -7.7513   39.8445 O   0  0  0  0  0  0
   -6.3439   -8.6442   38.6270 O   0  0  0  0  0  0
   -6.0807   -6.3037   41.2315 O   0  0  0  0  0  0
  -10.7028   -9.9404   42.6848 H   0  0  0  0  0  0
   -9.1156   -3.3269   36.9337 H   0  0  0  0  0  0
  -11.1858   -7.5964   42.0307 H   0  0  0  0  0  0
   -8.4719  -10.9231   42.2208 H   0  0  0  0  0  0
   -9.5205   -5.7466   36.5647 H   0  0  0  0  0  0
   -7.6912   -2.5817   38.8240 H   0  0  0  0  0  0
   -9.4480   -6.2359   40.9157 H   0  0  0  0  0  0
   -6.7276   -9.5708   41.1065 H   0  0  0  0  0  0
   -8.5077   -7.4194   38.0781 H   0  0  0  0  0  0
   -6.6739   -4.2464   40.3428 H   0  0  0  0  0  0
   -4.3437   -7.8696   37.0344 H   0  0  0  0  0  0
   -5.7337   -8.3980   36.1161 H   0  0  0  0  0  0
   -7.0488  -10.5656   37.0065 H   0  0  0  0  0  0
   -6.4427  -11.3338   38.4548 H   0  0  0  0  0  0
   -3.7107   -9.1529   34.9509 H   0  0  0  0  0  0
   -3.0962   -9.9625   36.4244 H   0  0  0  0  0  0
   -4.3386  -12.0112   37.2646 H   0  0  0  0  0  0
   -5.7754  -12.5575   36.3475 H   0  0  0  0  0  0
   -4.5989   -9.7104   38.6362 H   0  0  0  0  0  0
   -3.1433   -7.5708   41.7751 H   0  0  0  0  0  0
   -3.5397   -5.8978   41.3465 H   0  0  0  0  0  0
   -2.4981   -6.2290   42.7410 H   0  0  0  0  0  0
   -3.0547  -12.1042   35.1004 H   0  0  0  0  0  0
   -4.5725  -12.6320   34.2893 H   0  0  0  0  0  0
   -3.6917  -11.1796   33.6935 H   0  0  0  0  0  0
   -4.8122   -5.6341   43.4752 H   0  0  0  0  0  0
   -4.4017   -7.2695   43.9466 H   0  0  0  0  0  0
   -5.6435   -8.1665   41.9529 H   0  0  0  0  0  0
   -6.6999   -7.1642   42.9801 H   0  0  0  0  0  0
   -5.5669  -10.6210   35.0020 H   0  0  0  0  0  0
  1  3  2  0  0  0
  1  4  1  0  0  0
  1 28  1  0  0  0
  2  5  2  0  0  0
  2  6  1  0  0  0
  2 29  1  0  0  0
  3  7  1  0  0  0
  3 30  1  0  0  0
  4  8  2  0  0  0
  4 31  1  0  0  0
  5  9  1  0  0  0
  5 32  1  0  0  0
  6 10  2  0  0  0
  6 33  1  0  0  0
  7 11  2  0  0  0
  7 34  1  0  0  0
  8 11  1  0  0  0
  8 35  1  0  0  0
  9 12  2  0  0  0
  9 36  1  0  0  0
 10 12  1  0  0  0
 10 37  1  0  0  0
 11 23  1  0  0  0
 12 23  1  0  0  0
 13 23  1  0  0  0
 13 25  2  0  0  0
 13 26  1  0  0  0
 14 16  1  0  0  0
 14 18  1  0  0  0
 14 38  1  0  0  0
 14 39  1  0  0  0
 15 17  1  0  0  0
 15 18  1  0  0  0
 15 40  1  0  0  0
 15 41  1  0  0  0
 16 24  1  0  0  0
 16 42  1  0  0  0
 16 43  1  0  0  0
 17 24  1  0  0  0
 17 44  1  0  0  0
 17 45  1  0  0  0
 18 26  1  0  0  0
 18 46  1  0  0  0
 19 21  1  0  0  0
 19 47  1  0  0  0
 19 48  1  0  0  0
 19 49  1  0  0  0
 20 24  1  0  0  0
 20 50  1  0  0  0
 20 51  1  0  0  0
 20 52  1  0  0  0
 21 22  1  0  0  0
 21 53  1  0  0  0
 21 54  1  0  0  0
 22 27  1  0  0  0
 22 55  1  0  0  0
 22 56  1  0  0  0
 23 27  1  0  0  0
 24 57  1  0  0  0
M  CHG  1  24   1
M  END
> <EON_Query>
60c

> <EON_ET_pb>
0.137

> <EON_ET_coul>
0.109

> <EON_ET_combo>
0.63

> <EON_ShapeTanimoto>
0.493

> <ROCS_ShapeQuery>
60c

> <ROCS_TanimotoCombo>
0.722

> <ROCS_ShapeTanimoto>
0.56

> <ROCS_ColorTanimoto>
0.163

> <ROCS_RefTversky>
0.689

> <ROCS_RefColorTversky>
0.254

> <ROCS_RefTverskyCombo>
0.944

> <ROCS_FitTversky>
0.748

> <ROCS_FitColorTversky>
0.311

> <ROCS_FitTverskyCombo>
1.059

> <ROCS_ColorScore>
-2.519

> <ROCS_Overlap>
901.359

> <ROCS_Rank>
1485

> <EON_Rank>
449

> <i_qp_#stars>
0

> <i_qp_#amine>
1

> <i_qp_#amidine>
0

> <i_qp_#acid>
0

> <i_qp_#amide>
0

> <i_qp_#rotor>
7

> <i_qp_#rtvFG>
0

> <i_qp_CNS>
1

> <r_qp_mol_MW>
367.487

> <r_qp_dipole>
3.23023

> <r_qp_SASA>
676.153

> <r_qp_FOSA>
365.934

> <r_qp_FISA>
9.53468

> <r_qp_PISA>
300.684

> <r_qp_WPSA>
0

> <r_qp_volume>
1237.08

> <r_qp_donorHB>
0

> <r_qp_accptHB>
4.75

> <r_qp_dip^2/V>
0.00843474

> <r_qp_ACxDN^.5/SA>
0

> <r_qp_glob>
0.824235

> <r_qp_QPpolrz>
41.7306

> <r_qp_QPlogPC16>
11.8974

> <r_qp_QPlogPoct>
15.8913

> <r_qp_QPlogPw>
6.59106

> <r_qp_QPlogPo/w>
4.55759

> <r_qp_QPlogS>
-4.20096

> <r_qp_CIQPlogS>
-4.38076

> <r_qp_QPlogHERG>
-6.53617

> <r_qp_QPPCaco>
2006.24

> <r_qp_QPlogBB>
0.446582

> <r_qp_QPPMDCK>
1161.63

> <r_qp_QPlogKp>
-2.02653

> <r_qp_IP(eV)>
9.18732

> <r_qp_EA(eV)>
0.0163622

> <i_qp_#metab>
4

> <r_qp_QPlogKhsa>
0.641388

> <i_qp_HumanOralAbsorption>
3

> <r_qp_PercentHumanOralAbsorption>
100

> <r_qp_SAfluorine>
0

> <r_qp_SAamideO>
0

> <r_qp_PSA>
31.3961

> <i_qp_#NandO>
4

> <i_qp_RuleOfFive>
0

> <i_qp_RuleOfThree>
0

> <i_qp_#ringatoms>
18

> <i_qp_#in34>
0

> <i_qp_#in56>
18

> <i_qp_#noncon>
5

> <i_qp_#nonHatm>
27

> <r_qp_Jm>
0.226261

> <stars>
0

> <logP>
4.55759

> <Caco>
2006.24

> <MDCK>
1161.63

> <HumanOralAbsorption>
3

> <PercentHumanOralAbsorption>
100.0

> <RuleOfFive>
0

> <base>
fda.sdf

$$$$
Rivastigmine.cdx_63
                    3D
 Schrodinger Suite 2022-3.
 41 41  0  0  1  0            999 V2000
   -6.0842  -10.1670   41.2945 C   0  0  0  0  0  0
   -5.3625  -10.4963   40.1472 C   0  0  0  0  0  0
   -6.8779   -9.0201   41.3140 C   0  0  0  0  0  0
   -6.2283   -8.5318   39.0389 C   0  0  0  0  0  0
   -5.4346   -9.6787   39.0193 C   0  0  0  0  0  0
   -6.9499   -8.2024   40.1863 C   0  0  0  0  0  0
   -7.0817   -5.9031   40.6427 C   0  0  0  0  0  0
   -8.1728   -4.8195   37.7059 C   0  0  0  0  0  0
   -4.8760   -9.0469   36.6348 C   0  0  0  0  0  0
   -7.0317   -3.4386   40.4215 C   0  0  0  0  0  0
   -6.2889  -11.4367   36.5278 C   0  0  0  0  0  0
   -3.8580  -11.9654   36.4184 C   0  0  0  0  0  0
   -8.6867   -4.7163   39.1016 C   0  0  0  0  0  0
   -4.6523  -10.0353   37.7765 C   0  0  2  0  0  0
   -7.5933   -4.7344   40.0679 N   0  0  0  0  0  0
   -4.9742  -11.4062   37.2537 N   0  3  0  0  0  0
   -6.1583   -5.9278   41.4558 O   0  0  0  0  0  0
   -7.7250   -7.0836   40.2052 O   0  0  0  0  0  0
   -6.0283  -10.8038   42.1723 H   0  0  0  0  0  0
   -4.7465  -11.3916   40.1415 H   0  0  0  0  0  0
   -7.4375   -8.7692   42.2108 H   0  0  0  0  0  0
   -6.2861   -7.8923   38.1612 H   0  0  0  0  0  0
   -7.5098   -3.9798   37.4706 H   0  0  0  0  0  0
   -7.6309   -5.7599   37.5580 H   0  0  0  0  0  0
   -9.0108   -4.7967   36.9989 H   0  0  0  0  0  0
   -5.9332   -8.9714   36.3569 H   0  0  0  0  0  0
   -4.5341   -8.0442   36.9148 H   0  0  0  0  0  0
   -4.3190   -9.3517   35.7417 H   0  0  0  0  0  0
   -6.2118   -3.1869   39.7437 H   0  0  0  0  0  0
   -6.6481   -3.4594   41.4452 H   0  0  0  0  0  0
   -7.7982   -2.6622   40.3502 H   0  0  0  0  0  0
   -7.0469  -11.0178   37.1921 H   0  0  0  0  0  0
   -6.1847  -10.8355   35.6225 H   0  0  0  0  0  0
   -6.5121  -12.4773   36.2844 H   0  0  0  0  0  0
   -2.9405  -11.9109   37.0073 H   0  0  0  0  0  0
   -4.1081  -12.9999   36.1759 H   0  0  0  0  0  0
   -3.7805  -11.3580   35.5145 H   0  0  0  0  0  0
   -9.3479   -5.5577   39.3298 H   0  0  0  0  0  0
   -9.2411   -3.7839   39.2431 H   0  0  0  0  0  0
   -3.5811  -10.0667   38.0080 H   0  0  0  0  0  0
   -5.0686  -12.0048   38.0492 H   0  0  0  0  0  0
  1  2  2  0  0  0
  1  3  1  0  0  0
  1 19  1  0  0  0
  2  5  1  0  0  0
  2 20  1  0  0  0
  3  6  2  0  0  0
  3 21  1  0  0  0
  4  5  2  0  0  0
  4  6  1  0  0  0
  4 22  1  0  0  0
  5 14  1  0  0  0
  6 18  1  0  0  0
  7 15  1  0  0  0
  7 17  2  0  0  0
  7 18  1  0  0  0
  8 13  1  0  0  0
  8 23  1  0  0  0
  8 24  1  0  0  0
  8 25  1  0  0  0
  9 14  1  0  0  0
  9 26  1  0  0  0
  9 27  1  0  0  0
  9 28  1  0  0  0
 10 15  1  0  0  0
 10 29  1  0  0  0
 10 30  1  0  0  0
 10 31  1  0  0  0
 11 16  1  0  0  0
 11 32  1  0  0  0
 11 33  1  0  0  0
 11 34  1  0  0  0
 12 16  1  0  0  0
 12 35  1  0  0  0
 12 36  1  0  0  0
 12 37  1  0  0  0
 13 15  1  0  0  0
 13 38  1  0  0  0
 13 39  1  0  0  0
 14 16  1  0  0  0
 14 40  1  0  0  0
 16 41  1  0  0  0
M  CHG  1  16   1
M  END
> <EON_Query>
60c

> <EON_ET_pb>
0.112

> <EON_ET_coul>
0.087

> <EON_ET_combo>
0.63

> <EON_ShapeTanimoto>
0.518

> <ROCS_ShapeQuery>
60c

> <ROCS_TanimotoCombo>
0.737

> <ROCS_ShapeTanimoto>
0.57

> <ROCS_ColorTanimoto>
0.166

> <ROCS_RefTversky>
0.588

> <ROCS_RefColorTversky>
0.206

> <ROCS_RefTverskyCombo>
0.794

> <ROCS_FitTversky>
0.95

> <ROCS_FitColorTversky>
0.464

> <ROCS_FitTverskyCombo>
1.414

> <ROCS_ColorScore>
-1.997

> <ROCS_Overlap>
756.431

> <ROCS_Rank>
1293

> <EON_Rank>
454

> <i_qp_#stars>
0

> <i_qp_#amine>
1

> <i_qp_#amidine>
0

> <i_qp_#acid>
0

> <i_qp_#amide>
0

> <i_qp_#rotor>
4

> <i_qp_#rtvFG>
0

> <i_qp_CNS>
1

> <r_qp_mol_MW>
250.34

> <r_qp_dipole>
3.92373

> <r_qp_SASA>
538.877

> <r_qp_FOSA>
386.721

> <r_qp_FISA>
39.8543

> <r_qp_PISA>
112.302

> <r_qp_WPSA>
0

> <r_qp_volume>
927.96

> <r_qp_donorHB>
0

> <r_qp_accptHB>
5

> <r_qp_dip^2/V>
0.0165909

> <r_qp_ACxDN^.5/SA>
0

> <r_qp_glob>
0.853811

> <r_qp_QPpolrz>
29.487

> <r_qp_QPlogPC16>
7.88948

> <r_qp_QPlogPoct>
11.8113

> <r_qp_QPlogPw>
6.09351

> <r_qp_QPlogPo/w>
2.24278

> <r_qp_QPlogS>
-1.94021

> <r_qp_CIQPlogS>
-1.38164

> <r_qp_QPlogHERG>
-5.15921

> <r_qp_QPPCaco>
1034.81

> <r_qp_QPlogBB>
0.356456

> <r_qp_QPPMDCK>
567.928

> <r_qp_QPlogKp>
-3.53697

> <r_qp_IP(eV)>
9.14075

> <r_qp_EA(eV)>
-0.146917

> <i_qp_#metab>
3

> <r_qp_QPlogKhsa>
-0.195473

> <i_qp_HumanOralAbsorption>
3

> <r_qp_PercentHumanOralAbsorption>
94.0379

> <r_qp_SAfluorine>
0

> <r_qp_SAamideO>
0

> <r_qp_PSA>
40.8703

> <i_qp_#NandO>
4

> <i_qp_RuleOfFive>
0

> <i_qp_RuleOfThree>
0

> <i_qp_#ringatoms>
6

> <i_qp_#in34>
0

> <i_qp_#in56>
6

> <i_qp_#noncon>
0

> <i_qp_#nonHatm>
18

> <r_qp_Jm>
0.834346

> <stars>
0

> <logP>
2.24278

> <Caco>
1034.81

> <MDCK>
567.928

> <HumanOralAbsorption>
3

> <PercentHumanOralAbsorption>
94.0379

> <RuleOfFive>
0

> <base>
fda.sdf

$$$$
Rivastigmine tartrate.cdx_63
                    3D
 Schrodinger Suite 2022-3.
 41 41  0  0  1  0            999 V2000
   -6.0842  -10.1670   41.2945 C   0  0  0  0  0  0
   -5.3625  -10.4963   40.1472 C   0  0  0  0  0  0
   -6.8779   -9.0201   41.3140 C   0  0  0  0  0  0
   -6.2283   -8.5318   39.0389 C   0  0  0  0  0  0
   -5.4346   -9.6787   39.0193 C   0  0  0  0  0  0
   -6.9499   -8.2024   40.1863 C   0  0  0  0  0  0
   -7.0817   -5.9031   40.6427 C   0  0  0  0  0  0
   -8.1728   -4.8195   37.7059 C   0  0  0  0  0  0
   -4.8760   -9.0469   36.6348 C   0  0  0  0  0  0
   -7.0317   -3.4386   40.4215 C   0  0  0  0  0  0
   -6.2889  -11.4367   36.5278 C   0  0  0  0  0  0
   -3.8580  -11.9654   36.4184 C   0  0  0  0  0  0
   -8.6867   -4.7163   39.1016 C   0  0  0  0  0  0
   -4.6523  -10.0353   37.7765 C   0  0  2  0  0  0
   -7.5933   -4.7344   40.0679 N   0  0  0  0  0  0
   -4.9742  -11.4062   37.2537 N   0  3  0  0  0  0
   -6.1583   -5.9278   41.4558 O   0  0  0  0  0  0
   -7.7250   -7.0836   40.2052 O   0  0  0  0  0  0
   -6.0283  -10.8038   42.1723 H   0  0  0  0  0  0
   -4.7465  -11.3916   40.1415 H   0  0  0  0  0  0
   -7.4375   -8.7692   42.2108 H   0  0  0  0  0  0
   -6.2861   -7.8923   38.1612 H   0  0  0  0  0  0
   -7.5098   -3.9798   37.4706 H   0  0  0  0  0  0
   -7.6309   -5.7599   37.5580 H   0  0  0  0  0  0
   -9.0108   -4.7967   36.9989 H   0  0  0  0  0  0
   -5.9332   -8.9714   36.3569 H   0  0  0  0  0  0
   -4.5341   -8.0442   36.9148 H   0  0  0  0  0  0
   -4.3190   -9.3517   35.7417 H   0  0  0  0  0  0
   -6.2118   -3.1869   39.7437 H   0  0  0  0  0  0
   -6.6481   -3.4594   41.4452 H   0  0  0  0  0  0
   -7.7982   -2.6622   40.3502 H   0  0  0  0  0  0
   -7.0469  -11.0178   37.1921 H   0  0  0  0  0  0
   -6.1847  -10.8355   35.6225 H   0  0  0  0  0  0
   -6.5121  -12.4773   36.2844 H   0  0  0  0  0  0
   -2.9405  -11.9109   37.0073 H   0  0  0  0  0  0
   -4.1081  -12.9999   36.1759 H   0  0  0  0  0  0
   -3.7805  -11.3580   35.5145 H   0  0  0  0  0  0
   -9.3479   -5.5577   39.3298 H   0  0  0  0  0  0
   -9.2411   -3.7839   39.2431 H   0  0  0  0  0  0
   -3.5811  -10.0667   38.0080 H   0  0  0  0  0  0
   -5.0686  -12.0048   38.0492 H   0  0  0  0  0  0
  1  2  2  0  0  0
  1  3  1  0  0  0
  1 19  1  0  0  0
  2  5  1  0  0  0
  2 20  1  0  0  0
  3  6  2  0  0  0
  3 21  1  0  0  0
  4  5  2  0  0  0
  4  6  1  0  0  0
  4 22  1  0  0  0
  5 14  1  0  0  0
  6 18  1  0  0  0
  7 15  1  0  0  0
  7 17  2  0  0  0
  7 18  1  0  0  0
  8 13  1  0  0  0
  8 23  1  0  0  0
  8 24  1  0  0  0
  8 25  1  0  0  0
  9 14  1  0  0  0
  9 26  1  0  0  0
  9 27  1  0  0  0
  9 28  1  0  0  0
 10 15  1  0  0  0
 10 29  1  0  0  0
 10 30  1  0  0  0
 10 31  1  0  0  0
 11 16  1  0  0  0
 11 32  1  0  0  0
 11 33  1  0  0  0
 11 34  1  0  0  0
 12 16  1  0  0  0
 12 35  1  0  0  0
 12 36  1  0  0  0
 12 37  1  0  0  0
 13 15  1  0  0  0
 13 38  1  0  0  0
 13 39  1  0  0  0
 14 16  1  0  0  0
 14 40  1  0  0  0
 16 41  1  0  0  0
M  CHG  1  16   1
M  END
> <EON_Query>
60c

> <EON_ET_pb>
0.112

> <EON_ET_coul>
0.087

> <EON_ET_combo>
0.63

> <EON_ShapeTanimoto>
0.518

> <ROCS_ShapeQuery>
60c

> <ROCS_TanimotoCombo>
0.737

> <ROCS_ShapeTanimoto>
0.57

> <ROCS_ColorTanimoto>
0.166

> <ROCS_RefTversky>
0.588

> <ROCS_RefColorTversky>
0.206

> <ROCS_RefTverskyCombo>
0.794

> <ROCS_FitTversky>
0.95

> <ROCS_FitColorTversky>
0.464

> <ROCS_FitTverskyCombo>
1.414

> <ROCS_ColorScore>
-1.997

> <ROCS_Overlap>
756.431

> <ROCS_Rank>
1292

> <EON_Rank>
455

> <i_qp_#stars>
0

> <i_qp_#amine>
1

> <i_qp_#amidine>
0

> <i_qp_#acid>
0

> <i_qp_#amide>
0

> <i_qp_#rotor>
4

> <i_qp_#rtvFG>
0

> <i_qp_CNS>
1

> <r_qp_mol_MW>
250.34

> <r_qp_dipole>
3.92373

> <r_qp_SASA>
538.877

> <r_qp_FOSA>
386.721

> <r_qp_FISA>
39.8543

> <r_qp_PISA>
112.302

> <r_qp_WPSA>
0

> <r_qp_volume>
927.96

> <r_qp_donorHB>
0

> <r_qp_accptHB>
5

> <r_qp_dip^2/V>
0.0165909

> <r_qp_ACxDN^.5/SA>
0

> <r_qp_glob>
0.853811

> <r_qp_QPpolrz>
29.487

> <r_qp_QPlogPC16>
7.88948

> <r_qp_QPlogPoct>
11.8113

> <r_qp_QPlogPw>
6.09351

> <r_qp_QPlogPo/w>
2.24278

> <r_qp_QPlogS>
-1.94021

> <r_qp_CIQPlogS>
-1.38164

> <r_qp_QPlogHERG>
-5.15921

> <r_qp_QPPCaco>
1034.81

> <r_qp_QPlogBB>
0.356456

> <r_qp_QPPMDCK>
567.928

> <r_qp_QPlogKp>
-3.53697

> <r_qp_IP(eV)>
9.14075

> <r_qp_EA(eV)>
-0.146917

> <i_qp_#metab>
3

> <r_qp_QPlogKhsa>
-0.195473

> <i_qp_HumanOralAbsorption>
3

> <r_qp_PercentHumanOralAbsorption>
94.0379

> <r_qp_SAfluorine>
0

> <r_qp_SAamideO>
0

> <r_qp_PSA>
40.8703

> <i_qp_#NandO>
4

> <i_qp_RuleOfFive>
0

> <i_qp_RuleOfThree>
0

> <i_qp_#ringatoms>
6

> <i_qp_#in34>
0

> <i_qp_#in56>
6

> <i_qp_#noncon>
0

> <i_qp_#nonHatm>
18

> <r_qp_Jm>
0.834346

> <stars>
0

> <logP>
2.24278

> <Caco>
1034.81

> <MDCK>
567.928

> <HumanOralAbsorption>
3

> <PercentHumanOralAbsorption>
94.0379

> <RuleOfFive>
0

> <base>
fda.sdf

$$$$
Ciclopirox ethanolamine.cdx_0
                    3D
 Schrodinger Suite 2022-3.
 32 33  0  0  1  0            999 V2000
   -6.2525   -8.4347   38.7016 C   0  0  0  0  0  0
   -5.6782   -9.6201   38.9293 C   0  0  0  0  0  0
   -6.8808   -7.7396   39.8323 C   0  0  0  0  0  0
   -6.3293   -9.4638   41.3868 C   0  0  0  0  0  0
   -5.6529  -10.2574   40.2813 C   0  0  0  0  0  0
   -8.2787   -4.1988   37.7918 C   0  0  0  0  0  0
   -7.1305   -4.0490   38.7852 C   0  0  0  0  0  0
   -9.3180   -5.2022   38.2827 C   0  0  0  0  0  0
   -6.4933   -5.3958   39.1167 C   0  0  0  0  0  0
   -8.6860   -6.5516   38.6133 C   0  0  0  0  0  0
   -7.5316   -6.4072   39.6074 C   0  0  0  0  0  0
   -5.0143  -10.3921   37.8265 C   0  0  0  0  0  0
   -6.9119   -8.2159   41.0551 N   0  3  0  0  0  0
   -7.4657   -7.5886   42.0178 O   0  5  0  0  0  0
   -6.3414   -9.9403   42.5246 O   0  0  0  0  0  0
   -6.2704   -7.9729   37.7221 H   0  0  0  0  0  0
   -6.1529  -11.2318   40.2309 H   0  0  0  0  0  0
   -4.6120  -10.4150   40.5872 H   0  0  0  0  0  0
   -8.7564   -3.2236   37.6349 H   0  0  0  0  0  0
   -7.8855   -4.5212   36.8209 H   0  0  0  0  0  0
   -6.3736   -3.3761   38.3668 H   0  0  0  0  0  0
   -7.4986   -3.5803   39.7039 H   0  0  0  0  0  0
   -9.8156   -4.8044   39.1747 H   0  0  0  0  0  0
  -10.0954   -5.3281   37.5200 H   0  0  0  0  0  0
   -5.9725   -5.7752   38.2388 H   0  0  0  0  0  0
   -5.7526   -5.2466   39.9031 H   0  0  0  0  0  0
   -9.4484   -7.1990   39.0512 H   0  0  0  0  0  0
   -8.3410   -7.0245   37.6929 H   0  0  0  0  0  0
   -7.9207   -6.0884   40.5630 H   0  0  0  0  0  0
   -3.9665  -10.1085   37.7664 H   0  0  0  0  0  0
   -5.5073  -10.1720   36.8825 H   0  0  0  0  0  0
   -5.0938  -11.4572   38.0317 H   0  0  0  0  0  0
  1  2  2  0  0  0
  1  3  1  0  0  0
  1 16  1  0  0  0
  2  5  1  0  0  0
  2 12  1  0  0  0
  3 11  1  0  0  0
  3 13  2  0  0  0
  4  5  1  0  0  0
  4 13  1  0  0  0
  4 15  2  0  0  0
  5 17  1  0  0  0
  5 18  1  0  0  0
  6  7  1  0  0  0
  6  8  1  0  0  0
  6 19  1  0  0  0
  6 20  1  0  0  0
  7  9  1  0  0  0
  7 21  1  0  0  0
  7 22  1  0  0  0
  8 10  1  0  0  0
  8 23  1  0  0  0
  8 24  1  0  0  0
  9 11  1  0  0  0
  9 25  1  0  0  0
  9 26  1  0  0  0
 10 11  1  0  0  0
 10 27  1  0  0  0
 10 28  1  0  0  0
 11 29  1  0  0  0
 12 30  1  0  0  0
 12 31  1  0  0  0
 12 32  1  0  0  0
 13 14  1  0  0  0
M  CHG  2  13   1  14  -1
M  END
> <EON_Query>
60c

> <EON_ET_pb>
0.159

> <EON_ET_coul>
0.175

> <EON_ET_combo>
0.622

> <EON_ShapeTanimoto>
0.463

> <ROCS_ShapeQuery>
60c

> <ROCS_TanimotoCombo>
0.658

> <ROCS_ShapeTanimoto>
0.51

> <ROCS_ColorTanimoto>
0.148

> <ROCS_RefTversky>
0.519

> <ROCS_RefColorTversky>
0.173

> <ROCS_RefTverskyCombo>
0.692

> <ROCS_FitTversky>
0.967

> <ROCS_FitColorTversky>
0.499

> <ROCS_FitTverskyCombo>
1.466

> <ROCS_ColorScore>
-1.671

> <ROCS_Overlap>
664.799

> <ROCS_Rank>
2301

> <EON_Rank>
500

> <i_qp_#stars>
0

> <i_qp_#amine>
0

> <i_qp_#amidine>
0

> <i_qp_#acid>
0

> <i_qp_#amide>
0

> <i_qp_#rotor>
0

> <i_qp_#rtvFG>
0

> <i_qp_CNS>
0

> <r_qp_mol_MW>
207.272

> <r_qp_dipole>
8.11989

> <r_qp_SASA>
454.011

> <r_qp_FOSA>
345.326

> <r_qp_FISA>
92.4396

> <r_qp_PISA>
16.2456

> <r_qp_WPSA>
0

> <r_qp_volume>
754.34

> <r_qp_donorHB>
0

> <r_qp_accptHB>
3

> <r_qp_dip^2/V>
0.0874044

> <r_qp_ACxDN^.5/SA>
0

> <r_qp_glob>
0.882694

> <r_qp_QPpolrz>
24.1898

> <r_qp_QPlogPC16>
6.00691

> <r_qp_QPlogPoct>
10.1339

> <r_qp_QPlogPw>
4.50601

> <r_qp_QPlogPo/w>
2.13467

> <r_qp_QPlogS>
-3.24991

> <r_qp_CIQPlogS>
-2.34886

> <r_qp_QPlogHERG>
-3.5076

> <r_qp_QPPCaco>
1316.12

> <r_qp_QPlogBB>
-0.227484

> <r_qp_QPPMDCK>
665.724

> <r_qp_QPlogKp>
-3.16593

> <r_qp_IP(eV)>
9.15541

> <r_qp_EA(eV)>
1.3864

> <i_qp_#metab>
3

> <r_qp_QPlogKhsa>
0.00535002

> <i_qp_HumanOralAbsorption>
3

> <r_qp_PercentHumanOralAbsorption>
95.2741

> <r_qp_SAfluorine>
0

> <r_qp_SAamideO>
0

> <r_qp_PSA>
51.0657

> <i_qp_#NandO>
3

> <i_qp_RuleOfFive>
0

> <i_qp_RuleOfThree>
0

> <i_qp_#ringatoms>
12

> <i_qp_#in34>
0

> <i_qp_#in56>
12

> <i_qp_#noncon>
7

> <i_qp_#nonHatm>
15

> <r_qp_Jm>
0.079561

> <stars>
0

> <logP>
2.13467

> <Caco>
1316.12

> <MDCK>
665.724

> <HumanOralAbsorption>
3

> <PercentHumanOralAbsorption>
95.2741

> <RuleOfFive>
0

> <base>
fda.sdf

$$$$
BindingDB_50350789_mol_1_20
                    3D
 Schrodinger Suite 2022-3.
 50 51  0  0  1  0            999 V2000
   -8.6781   -3.1298   38.3031 C   0  0  0  0  0  0
   -7.5572   -3.4656   39.0624 C   0  0  0  0  0  0
   -9.3700   -4.1199   37.6054 C   0  0  0  0  0  0
   -7.1281   -4.7914   39.1238 C   0  0  0  0  0  0
   -8.9408   -5.4457   37.6668 C   0  0  0  0  0  0
   -7.8199   -5.7814   38.4260 C   0  0  0  0  0  0
   -7.2688   -7.9263   39.6176 C   0  0  0  0  0  0
   -6.5659  -10.3183   41.5949 C   0  0  0  0  0  0
   -5.0500  -10.3153   41.4515 C   0  0  0  0  0  0
   -7.2678  -10.3579   40.2395 C   0  0  0  0  0  0
   -4.5725   -9.2066   40.5271 C   0  0  0  0  0  0
   -6.7706   -9.2941   39.2620 C   0  0  2  0  0  0
   -5.9236   -5.1198   39.9455 C   0  0  0  0  0  0
   -9.7034   -6.4833   36.9085 C   0  0  0  0  0  0
   -4.9080  -10.9565   34.4927 C   0  0  0  0  0  0
   -4.5519  -11.2256   35.9461 C   0  0  0  0  0  0
   -5.0429  -10.1039   36.8604 C   0  0  0  0  0  0
   -4.7130  -10.4016   38.3155 C   0  0  0  0  0  0
   -7.3843   -7.1263   38.4879 N   0  0  0  0  0  0
   -5.2557   -9.2926   39.1821 N   0  3  2  0  0  0
   -7.5221   -7.6331   40.7815 O   0  0  0  0  0  0
   -9.0126   -2.0975   38.2555 H   0  0  0  0  0  0
   -7.0247   -2.6868   39.6020 H   0  0  0  0  0  0
  -10.2425   -3.8477   37.0174 H   0  0  0  0  0  0
   -6.8772  -11.1886   42.1920 H   0  0  0  0  0  0
   -6.8882   -9.4267   42.1514 H   0  0  0  0  0  0
   -4.5889  -10.1945   42.4409 H   0  0  0  0  0  0
   -4.7158  -11.2853   41.0638 H   0  0  0  0  0  0
   -7.1376  -11.3594   39.7962 H   0  0  0  0  0  0
   -8.3552  -10.2482   40.3973 H   0  0  0  0  0  0
   -4.8119   -8.2229   40.9568 H   0  0  0  0  0  0
   -3.4873   -9.2633   40.3522 H   0  0  0  0  0  0
   -7.1241   -9.5215   38.2200 H   0  0  0  0  0  0
   -6.2200   -5.3599   40.9729 H   0  0  0  0  0  0
   -5.3817   -5.9768   39.5278 H   0  0  0  0  0  0
   -5.2210   -4.2781   39.9709 H   0  0  0  0  0  0
   -9.2954   -6.5898   35.8970 H   0  0  0  0  0  0
   -9.6530   -7.4569   37.4108 H   0  0  0  0  0  0
  -10.7646   -6.2172   36.8322 H   0  0  0  0  0  0
   -4.4777  -10.0092   34.1521 H   0  0  0  0  0  0
   -5.9932  -10.9099   34.3567 H   0  0  0  0  0  0
   -4.5194  -11.7552   33.8532 H   0  0  0  0  0  0
   -4.9968  -12.1789   36.2546 H   0  0  0  0  0  0
   -3.4644  -11.3307   36.0364 H   0  0  0  0  0  0
   -4.5794   -9.1559   36.5603 H   0  0  0  0  0  0
   -6.1269   -9.9820   36.7423 H   0  0  0  0  0  0
   -5.1780  -11.3301   38.6598 H   0  0  0  0  0  0
   -3.6341  -10.4425   38.4912 H   0  0  0  0  0  0
   -7.1299   -7.5437   37.5951 H   0  0  0  0  0  0
   -5.0170   -8.4447   38.7088 H   0  0  0  0  0  0
  1  2  2  0  0  0
  1  3  1  0  0  0
  1 22  1  0  0  0
  2  4  1  0  0  0
  2 23  1  0  0  0
  3  5  2  0  0  0
  3 24  1  0  0  0
  4  6  2  0  0  0
  4 13  1  0  0  0
  5  6  1  0  0  0
  5 14  1  0  0  0
  6 19  1  0  0  0
  7 12  1  0  0  0
  7 19  1  0  0  0
  7 21  2  0  0  0
  8  9  1  0  0  0
  8 10  1  0  0  0
  8 25  1  0  0  0
  8 26  1  0  0  0
  9 11  1  0  0  0
  9 27  1  0  0  0
  9 28  1  0  0  0
 10 12  1  0  0  0
 10 29  1  0  0  0
 10 30  1  0  0  0
 11 20  1  0  0  0
 11 31  1  0  0  0
 11 32  1  0  0  0
 12 20  1  0  0  0
 12 33  1  0  0  0
 13 34  1  0  0  0
 13 35  1  0  0  0
 13 36  1  0  0  0
 14 37  1  0  0  0
 14 38  1  0  0  0
 14 39  1  0  0  0
 15 16  1  0  0  0
 15 40  1  0  0  0
 15 41  1  0  0  0
 15 42  1  0  0  0
 16 17  1  0  0  0
 16 43  1  0  0  0
 16 44  1  0  0  0
 17 18  1  0  0  0
 17 45  1  0  0  0
 17 46  1  0  0  0
 18 20  1  0  0  0
 18 47  1  0  0  0
 18 48  1  0  0  0
 19 49  1  0  0  0
 20 50  1  0  0  0
M  CHG  1  20   1
M  END
> <EON_Query>
60c

> <EON_ET_pb>
0.054

> <EON_ET_coul>
0.04

> <EON_ET_combo>
0.622

> <EON_ShapeTanimoto>
0.567

> <ROCS_ShapeQuery>
60c

> <ROCS_TanimotoCombo>
0.734

> <ROCS_ShapeTanimoto>
0.639

> <ROCS_ColorTanimoto>
0.095

> <ROCS_RefTversky>
0.667

> <ROCS_RefColorTversky>
0.15

> <ROCS_RefTverskyCombo>
0.817

> <ROCS_FitTversky>
0.938

> <ROCS_FitColorTversky>
0.207

> <ROCS_FitTverskyCombo>
1.145

> <ROCS_ColorScore>
-1.48

> <ROCS_Overlap>
861.942

> <ROCS_Rank>
1332

> <EON_Rank>
503

> <i_qp_#stars>
0

> <i_qp_#amine>
1

> <i_qp_#amidine>
0

> <i_qp_#acid>
0

> <i_qp_#amide>
0

> <i_qp_#rotor>
5

> <i_qp_#rtvFG>
0

> <i_qp_CNS>
2

> <r_qp_mol_MW>
288.432

> <r_qp_dipole>
4.69613

> <r_qp_SASA>
603.157

> <r_qp_FOSA>
458.03

> <r_qp_FISA>
17.3789

> <r_qp_PISA>
127.748

> <r_qp_WPSA>
0

> <r_qp_volume>
1062.18

> <r_qp_donorHB>
1

> <r_qp_accptHB>
4.5

> <r_qp_dip^2/V>
0.0207626

> <r_qp_ACxDN^.5/SA>
0.00746074

> <r_qp_glob>
0.834705

> <r_qp_QPpolrz>
34.3639

> <r_qp_QPlogPC16>
9.3165

> <r_qp_QPlogPoct>
14.6106

> <r_qp_QPlogPw>
6.95199

> <r_qp_QPlogPo/w>
3.53679

> <r_qp_QPlogS>
-3.60151

> <r_qp_CIQPlogS>
-2.63501

> <r_qp_QPlogHERG>
-5.54203

> <r_qp_QPPCaco>
1690.42

> <r_qp_QPlogBB>
0.494382

> <r_qp_QPPMDCK>
965.308

> <r_qp_QPlogKp>
-2.97232

> <r_qp_IP(eV)>
9.00693

> <r_qp_EA(eV)>
-0.197639

> <i_qp_#metab>
5

> <r_qp_QPlogKhsa>
0.424279

> <i_qp_HumanOralAbsorption>
3

> <r_qp_PercentHumanOralAbsorption>
100

> <r_qp_SAfluorine>
0

> <r_qp_SAamideO>
0

> <r_qp_PSA>
30.1737

> <i_qp_#NandO>
3

> <i_qp_RuleOfFive>
0

> <i_qp_RuleOfThree>
0

> <i_qp_#ringatoms>
12

> <i_qp_#in34>
0

> <i_qp_#in56>
12

> <i_qp_#noncon>
5

> <i_qp_#nonHatm>
21

> <r_qp_Jm>
0.0769506

> <stars>
0

> <logP>
3.53679

> <Caco>
1690.42

> <MDCK>
965.308

> <HumanOralAbsorption>
3

> <PercentHumanOralAbsorption>
100.0

> <RuleOfFive>
0

> <base>
fda.sdf

$$$$
Bupivacaine hydrochloride.cdx_4
                    3D
 Schrodinger Suite 2022-3.
 50 51  0  0  1  0            999 V2000
   -8.6781   -3.1298   38.3031 C   0  0  0  0  0  0
   -7.5572   -3.4656   39.0624 C   0  0  0  0  0  0
   -9.3700   -4.1199   37.6054 C   0  0  0  0  0  0
   -7.1281   -4.7914   39.1238 C   0  0  0  0  0  0
   -8.9408   -5.4457   37.6668 C   0  0  0  0  0  0
   -7.8199   -5.7814   38.4260 C   0  0  0  0  0  0
   -7.2688   -7.9263   39.6176 C   0  0  0  0  0  0
   -6.5659  -10.3183   41.5949 C   0  0  0  0  0  0
   -5.0500  -10.3153   41.4515 C   0  0  0  0  0  0
   -7.2678  -10.3579   40.2395 C   0  0  0  0  0  0
   -4.5725   -9.2066   40.5271 C   0  0  0  0  0  0
   -6.7706   -9.2941   39.2620 C   0  0  2  0  0  0
   -5.9236   -5.1198   39.9455 C   0  0  0  0  0  0
   -9.7034   -6.4833   36.9085 C   0  0  0  0  0  0
   -4.9080  -10.9565   34.4927 C   0  0  0  0  0  0
   -4.5519  -11.2256   35.9461 C   0  0  0  0  0  0
   -5.0429  -10.1039   36.8604 C   0  0  0  0  0  0
   -4.7130  -10.4016   38.3155 C   0  0  0  0  0  0
   -7.3843   -7.1263   38.4879 N   0  0  0  0  0  0
   -5.2557   -9.2926   39.1821 N   0  3  2  0  0  0
   -7.5221   -7.6331   40.7815 O   0  0  0  0  0  0
   -9.0126   -2.0975   38.2554 H   0  0  0  0  0  0
   -7.0247   -2.6868   39.6019 H   0  0  0  0  0  0
  -10.2425   -3.8477   37.0174 H   0  0  0  0  0  0
   -6.8772  -11.1886   42.1920 H   0  0  0  0  0  0
   -6.8882   -9.4267   42.1514 H   0  0  0  0  0  0
   -4.5889  -10.1945   42.4409 H   0  0  0  0  0  0
   -4.7158  -11.2853   41.0638 H   0  0  0  0  0  0
   -7.1376  -11.3594   39.7962 H   0  0  0  0  0  0
   -8.3552  -10.2482   40.3973 H   0  0  0  0  0  0
   -4.8119   -8.2229   40.9568 H   0  0  0  0  0  0
   -3.4873   -9.2633   40.3522 H   0  0  0  0  0  0
   -7.1241   -9.5215   38.2200 H   0  0  0  0  0  0
   -6.2200   -5.3599   40.9729 H   0  0  0  0  0  0
   -5.3817   -5.9768   39.5278 H   0  0  0  0  0  0
   -5.2210   -4.2781   39.9709 H   0  0  0  0  0  0
   -9.2954   -6.5898   35.8970 H   0  0  0  0  0  0
   -9.6530   -7.4569   37.4108 H   0  0  0  0  0  0
  -10.7646   -6.2172   36.8322 H   0  0  0  0  0  0
   -4.4777  -10.0092   34.1521 H   0  0  0  0  0  0
   -5.9932  -10.9099   34.3567 H   0  0  0  0  0  0
   -4.5194  -11.7552   33.8532 H   0  0  0  0  0  0
   -4.9968  -12.1789   36.2546 H   0  0  0  0  0  0
   -3.4644  -11.3307   36.0364 H   0  0  0  0  0  0
   -4.5794   -9.1559   36.5603 H   0  0  0  0  0  0
   -6.1269   -9.9820   36.7423 H   0  0  0  0  0  0
   -5.1780  -11.3301   38.6598 H   0  0  0  0  0  0
   -3.6341  -10.4425   38.4912 H   0  0  0  0  0  0
   -7.1299   -7.5437   37.5951 H   0  0  0  0  0  0
   -5.0170   -8.4447   38.7088 H   0  0  0  0  0  0
  1  2  2  0  0  0
  1  3  1  0  0  0
  1 22  1  0  0  0
  2  4  1  0  0  0
  2 23  1  0  0  0
  3  5  2  0  0  0
  3 24  1  0  0  0
  4  6  2  0  0  0
  4 13  1  0  0  0
  5  6  1  0  0  0
  5 14  1  0  0  0
  6 19  1  0  0  0
  7 12  1  0  0  0
  7 19  1  0  0  0
  7 21  2  0  0  0
  8  9  1  0  0  0
  8 10  1  0  0  0
  8 25  1  0  0  0
  8 26  1  0  0  0
  9 11  1  0  0  0
  9 27  1  0  0  0
  9 28  1  0  0  0
 10 12  1  0  0  0
 10 29  1  0  0  0
 10 30  1  0  0  0
 11 20  1  0  0  0
 11 31  1  0  0  0
 11 32  1  0  0  0
 12 20  1  0  0  0
 12 33  1  0  0  0
 13 34  1  0  0  0
 13 35  1  0  0  0
 13 36  1  0  0  0
 14 37  1  0  0  0
 14 38  1  0  0  0
 14 39  1  0  0  0
 15 16  1  0  0  0
 15 40  1  0  0  0
 15 41  1  0  0  0
 15 42  1  0  0  0
 16 17  1  0  0  0
 16 43  1  0  0  0
 16 44  1  0  0  0
 17 18  1  0  0  0
 17 45  1  0  0  0
 17 46  1  0  0  0
 18 20  1  0  0  0
 18 47  1  0  0  0
 18 48  1  0  0  0
 19 49  1  0  0  0
 20 50  1  0  0  0
M  CHG  1  20   1
M  END
> <EON_Query>
60c

> <EON_ET_pb>
0.054

> <EON_ET_coul>
0.04

> <EON_ET_combo>
0.622

> <EON_ShapeTanimoto>
0.567

> <ROCS_ShapeQuery>
60c

> <ROCS_TanimotoCombo>
0.734

> <ROCS_ShapeTanimoto>
0.639

> <ROCS_ColorTanimoto>
0.095

> <ROCS_RefTversky>
0.667

> <ROCS_RefColorTversky>
0.15

> <ROCS_RefTverskyCombo>
0.817

> <ROCS_FitTversky>
0.938

> <ROCS_FitColorTversky>
0.207

> <ROCS_FitTverskyCombo>
1.145

> <ROCS_ColorScore>
-1.48

> <ROCS_Overlap>
861.942

> <ROCS_Rank>
1334

> <EON_Rank>
504

> <i_qp_#stars>
0

> <i_qp_#amine>
1

> <i_qp_#amidine>
0

> <i_qp_#acid>
0

> <i_qp_#amide>
0

> <i_qp_#rotor>
5

> <i_qp_#rtvFG>
0

> <i_qp_CNS>
2

> <r_qp_mol_MW>
288.432

> <r_qp_dipole>
4.69624

> <r_qp_SASA>
603.157

> <r_qp_FOSA>
458.03

> <r_qp_FISA>
17.3789

> <r_qp_PISA>
127.748

> <r_qp_WPSA>
0

> <r_qp_volume>
1062.18

> <r_qp_donorHB>
1

> <r_qp_accptHB>
4.5

> <r_qp_dip^2/V>
0.0207636

> <r_qp_ACxDN^.5/SA>
0.00746074

> <r_qp_glob>
0.834705

> <r_qp_QPpolrz>
34.3639

> <r_qp_QPlogPC16>
9.31649

> <r_qp_QPlogPoct>
14.6106

> <r_qp_QPlogPw>
6.95199

> <r_qp_QPlogPo/w>
3.53679

> <r_qp_QPlogS>
-3.6015

> <r_qp_CIQPlogS>
-2.63501

> <r_qp_QPlogHERG>
-5.54202

> <r_qp_QPPCaco>
1690.42

> <r_qp_QPlogBB>
0.494382

> <r_qp_QPPMDCK>
965.308

> <r_qp_QPlogKp>
-2.97233

> <r_qp_IP(eV)>
9.00693

> <r_qp_EA(eV)>
-0.197633

> <i_qp_#metab>
5

> <r_qp_QPlogKhsa>
0.424277

> <i_qp_HumanOralAbsorption>
3

> <r_qp_PercentHumanOralAbsorption>
100

> <r_qp_SAfluorine>
0

> <r_qp_SAamideO>
0

> <r_qp_PSA>
30.1737

> <i_qp_#NandO>
3

> <i_qp_RuleOfFive>
0

> <i_qp_RuleOfThree>
0

> <i_qp_#ringatoms>
12

> <i_qp_#in34>
0

> <i_qp_#in56>
12

> <i_qp_#noncon>
5

> <i_qp_#nonHatm>
21

> <r_qp_Jm>
0.0769512

> <stars>
0

> <logP>
3.53679

> <Caco>
1690.42

> <MDCK>
965.308

> <HumanOralAbsorption>
3

> <PercentHumanOralAbsorption>
100.0

> <RuleOfFive>
0

> <base>
fda.sdf

$$$$
Nabumetone.cdx_31
                    3D
 Schrodinger Suite 2022-3.
 33 34  0  0  1  0            999 V2000
   -6.5142   -6.2594   40.6626 C   0  0  0  0  0  0
   -8.5681   -5.6889   37.6235 C   0  0  0  0  0  0
   -6.4653   -7.6533   40.7005 C   0  0  0  0  0  0
   -8.6170   -4.2951   37.5857 C   0  0  0  0  0  0
   -7.8103   -7.7560   38.6985 C   0  0  0  0  0  0
   -7.2720   -4.1923   39.5877 C   0  0  0  0  0  0
   -7.8700   -6.3539   38.6447 C   0  0  0  0  0  0
   -7.2123   -5.5944   39.6414 C   0  0  0  0  0  0
   -7.1121   -8.4000   39.7203 C   0  0  0  0  0  0
   -7.9702   -3.5482   38.5659 C   0  0  0  0  0  0
   -5.8736  -10.0547   37.5257 C   0  0  0  0  0  0
   -6.5876  -10.9978   36.6166 C   0  0  0  0  0  0
   -7.3339   -1.4855   39.5641 C   0  0  0  0  0  0
   -7.0584   -9.8898   39.7623 C   0  0  0  0  0  0
   -5.8599  -10.4497   38.9866 C   0  0  0  0  0  0
   -5.3487   -9.0462   37.0713 O   0  0  0  0  0  0
   -8.0188   -2.1884   38.5284 O   0  0  0  0  0  0
   -6.0013   -5.6958   41.4393 H   0  0  0  0  0  0
   -9.0805   -6.2531   36.8473 H   0  0  0  0  0  0
   -5.9195   -8.1471   41.5001 H   0  0  0  0  0  0
   -9.1623   -3.7985   36.7876 H   0  0  0  0  0  0
   -8.3116   -8.3527   37.9380 H   0  0  0  0  0  0
   -6.7713   -3.5939   40.3468 H   0  0  0  0  0  0
   -7.6553  -10.7512   36.5062 H   0  0  0  0  0  0
   -6.1760  -10.9920   35.5952 H   0  0  0  0  0  0
   -6.5601  -12.0501   36.9393 H   0  0  0  0  0  0
   -7.4525   -0.4095   39.4152 H   0  0  0  0  0  0
   -6.2740   -1.7519   39.5471 H   0  0  0  0  0  0
   -7.7629   -1.7671   40.5287 H   0  0  0  0  0  0
   -7.0182  -10.2407   40.8073 H   0  0  0  0  0  0
   -7.9919  -10.3169   39.3586 H   0  0  0  0  0  0
   -5.8575  -11.5448   39.0425 H   0  0  0  0  0  0
   -4.9249  -10.0840   39.4277 H   0  0  0  0  0  0
  1  3  2  0  0  0
  1  8  1  0  0  0
  1 18  1  0  0  0
  2  4  2  0  0  0
  2  7  1  0  0  0
  2 19  1  0  0  0
  3  9  1  0  0  0
  3 20  1  0  0  0
  4 10  1  0  0  0
  4 21  1  0  0  0
  5  7  1  0  0  0
  5  9  2  0  0  0
  5 22  1  0  0  0
  6  8  1  0  0  0
  6 10  2  0  0  0
  6 23  1  0  0  0
  7  8  2  0  0  0
  9 14  1  0  0  0
 10 17  1  0  0  0
 11 12  1  0  0  0
 11 15  1  0  0  0
 11 16  2  0  0  0
 12 24  1  0  0  0
 12 25  1  0  0  0
 12 26  1  0  0  0
 13 17  1  0  0  0
 13 27  1  0  0  0
 13 28  1  0  0  0
 13 29  1  0  0  0
 14 15  1  0  0  0
 14 30  1  0  0  0
 14 31  1  0  0  0
 15 32  1  0  0  0
 15 33  1  0  0  0
M  END
> <EON_Query>
60c

> <EON_ET_pb>
0.085

> <EON_ET_coul>
0.108

> <EON_ET_combo>
0.618

> <EON_ShapeTanimoto>
0.533

> <ROCS_ShapeQuery>
60c

> <ROCS_TanimotoCombo>
0.736

> <ROCS_ShapeTanimoto>
0.572

> <ROCS_ColorTanimoto>
0.164

> <ROCS_RefTversky>
0.584

> <ROCS_RefColorTversky>
0.203

> <ROCS_RefTverskyCombo>
0.788

> <ROCS_FitTversky>
0.965

> <ROCS_FitColorTversky>
0.458

> <ROCS_FitTverskyCombo>
1.423

> <ROCS_ColorScore>
-1.973

> <ROCS_Overlap>
750.915

> <ROCS_Rank>
1304

> <EON_Rank>
531

> <i_qp_#stars>
0

> <i_qp_#amine>
0

> <i_qp_#amidine>
0

> <i_qp_#acid>
0

> <i_qp_#amide>
0

> <i_qp_#rotor>
4

> <i_qp_#rtvFG>
1

> <i_qp_CNS>
0

> <r_qp_mol_MW>
228.29

> <r_qp_dipole>
3.76583

> <r_qp_SASA>
479.584

> <r_qp_FOSA>
249.924

> <r_qp_FISA>
37.5573

> <r_qp_PISA>
192.103

> <r_qp_WPSA>
0

> <r_qp_volume>
813.463

> <r_qp_donorHB>
0

> <r_qp_accptHB>
2.75

> <r_qp_dip^2/V>
0.0174335

> <r_qp_ACxDN^.5/SA>
0

> <r_qp_glob>
0.878736

> <r_qp_QPpolrz>
25.667

> <r_qp_QPlogPC16>
7.42998

> <r_qp_QPlogPoct>
9.43609

> <r_qp_QPlogPw>
4.26177

> <r_qp_QPlogPo/w>
3.08564

> <r_qp_QPlogS>
-3.22362

> <r_qp_CIQPlogS>
-3.24484

> <r_qp_QPlogHERG>
-4.41032

> <r_qp_QPPCaco>
4362.58

> <r_qp_QPlogBB>
-0.00182715

> <r_qp_QPPMDCK>
2431.29

> <r_qp_QPlogKp>
-1.15092

> <r_qp_IP(eV)>
8.40695

> <r_qp_EA(eV)>
0.571298

> <i_qp_#metab>
3

> <r_qp_QPlogKhsa>
0.0740176

> <i_qp_HumanOralAbsorption>
3

> <r_qp_PercentHumanOralAbsorption>
100

> <r_qp_SAfluorine>
0

> <r_qp_SAamideO>
0

> <r_qp_PSA>
33.5966

> <i_qp_#NandO>
2

> <i_qp_RuleOfFive>
0

> <i_qp_RuleOfThree>
0

> <i_qp_#ringatoms>
10

> <i_qp_#in34>
0

> <i_qp_#in56>
10

> <i_qp_#noncon>
0

> <i_qp_#nonHatm>
17

> <r_qp_Jm>
9.84787

> <stars>
0

> <logP>
3.08564

> <Caco>
4362.58

> <MDCK>
2431.29

> <HumanOralAbsorption>
3

> <PercentHumanOralAbsorption>
100.0

> <RuleOfFive>
0

> <base>
fda.sdf

$$$$
Exemestane.cdx_0
                    3D
 Schrodinger Suite 2022-3.
 46 49  0  0  1  0            999 V2000
   -7.5575   -4.3744   39.7383 C   0  0  0  0  0  0
   -8.1697   -4.3699   37.2859 C   0  0  0  0  0  0
   -7.5379   -5.7107   39.7173 C   0  0  0  0  0  0
   -8.1482   -5.7131   37.2704 C   0  0  0  0  0  0
   -7.9046   -3.6111   38.5259 C   0  0  0  0  0  0
   -8.3210   -6.4427   36.0172 C   0  0  0  0  0  0
   -4.3008  -11.0082   37.0780 C   0  0  0  0  0  0
   -9.3975   -6.2969   35.2291 C   0  0  0  0  0  0
   -7.1998   -7.3917   35.6874 C   0  0  0  0  0  0
   -4.3617  -10.9269   35.5619 C   0  0  0  0  0  0
   -5.5933  -10.0437   35.3121 C   0  0  0  0  0  0
   -6.2322   -8.4713   39.3495 C   0  0  0  0  0  0
   -5.0994   -9.4495   38.9849 C   0  0  0  0  0  0
   -6.9051   -8.3430   36.8572 C   0  0  1  0  0  0
   -5.6739   -9.2112   36.5869 C   0  0  1  0  0  0
   -6.6581   -7.5364   38.1803 C   0  0  1  0  0  0
   -7.8641   -6.5762   38.5081 C   0  0  1  0  0  0
   -5.4358  -10.2304   37.7193 C   0  0  1  0  0  0
   -9.1513   -7.3516   38.8779 C   0  0  0  0  0  0
   -6.5721  -11.2392   37.9693 C   0  0  0  0  0  0
   -7.9588   -2.3861   38.5427 O   0  0  0  0  0  0
   -3.4566  -11.6451   37.6940 O   0  0  0  0  0  0
   -7.3354   -3.8212   40.6435 H   0  0  0  0  0  0
   -8.3518   -3.7833   36.3907 H   0  0  0  0  0  0
   -7.3065   -6.2151   40.6527 H   0  0  0  0  0  0
   -9.4818   -6.8583   34.3102 H   0  0  0  0  0  0
  -10.1896   -5.6169   35.5061 H   0  0  0  0  0  0
   -7.4446   -7.9769   34.7924 H   0  0  0  0  0  0
   -6.3029   -6.8074   35.4417 H   0  0  0  0  0  0
   -3.4506  -10.4440   35.1972 H   0  0  0  0  0  0
   -4.4812  -11.9184   35.1202 H   0  0  0  0  0  0
   -5.4601   -9.4300   34.4158 H   0  0  0  0  0  0
   -6.4927  -10.6524   35.1687 H   0  0  0  0  0  0
   -7.0937   -9.0460   39.7041 H   0  0  0  0  0  0
   -5.8869   -7.8747   40.2006 H   0  0  0  0  0  0
   -4.1662   -8.8876   38.8476 H   0  0  0  0  0  0
   -4.9175  -10.1316   39.8244 H   0  0  0  0  0  0
   -7.7791   -8.9924   36.9820 H   0  0  0  0  0  0
   -4.8092   -8.5259   36.5442 H   0  0  0  0  0  0
   -5.7847   -6.8894   37.9928 H   0  0  0  0  0  0
   -9.4276   -7.9860   38.0459 H   0  0  0  0  0  0
   -9.9408   -6.6401   39.0817 H   0  0  0  0  0  0
   -8.9561   -7.9531   39.7561 H   0  0  0  0  0  0
   -7.4096  -10.7260   38.4291 H   0  0  0  0  0  0
   -6.2149  -12.0220   38.6293 H   0  0  0  0  0  0
   -6.8808  -11.6699   37.0230 H   0  0  0  0  0  0
  1  3  2  0  0  0
  1  5  1  0  0  0
  1 23  1  0  0  0
  2  4  2  0  0  0
  2  5  1  0  0  0
  2 24  1  0  0  0
  3 17  1  0  0  0
  3 25  1  0  0  0
  4  6  1  0  0  0
  4 17  1  0  0  0
  5 21  2  0  0  0
  6  8  2  0  0  0
  6  9  1  0  0  0
  7 10  1  0  0  0
  7 18  1  0  0  0
  7 22  2  0  0  0
  8 26  1  0  0  0
  8 27  1  0  0  0
  9 14  1  0  0  0
  9 28  1  0  0  0
  9 29  1  0  0  0
 10 11  1  0  0  0
 10 30  1  0  0  0
 10 31  1  0  0  0
 11 15  1  0  0  0
 11 32  1  0  0  0
 11 33  1  0  0  0
 12 13  1  0  0  0
 12 16  1  0  0  0
 12 34  1  0  0  0
 12 35  1  0  0  0
 13 18  1  0  0  0
 13 36  1  0  0  0
 13 37  1  0  0  0
 14 15  1  0  0  0
 14 16  1  0  0  0
 14 38  1  0  0  0
 15 18  1  0  0  0
 15 39  1  0  0  0
 16 17  1  0  0  0
 16 40  1  0  0  0
 17 19  1  0  0  0
 18 20  1  0  0  0
 19 41  1  0  0  0
 19 42  1  0  0  0
 19 43  1  0  0  0
 20 44  1  0  0  0
 20 45  1  0  0  0
 20 46  1  0  0  0
M  END
> <EON_Query>
60c

> <EON_ET_pb>
0.132

> <EON_ET_coul>
0.135

> <EON_ET_combo>
0.617

> <EON_ShapeTanimoto>
0.485

> <ROCS_ShapeQuery>
60c

> <ROCS_TanimotoCombo>
0.713

> <ROCS_ShapeTanimoto>
0.507

> <ROCS_ColorTanimoto>
0.206

> <ROCS_RefTversky>
0.597

> <ROCS_RefColorTversky>
0.28

> <ROCS_RefTverskyCombo>
0.877

> <ROCS_FitTversky>
0.77

> <ROCS_FitColorTversky>
0.441

> <ROCS_FitTverskyCombo>
1.211

> <ROCS_ColorScore>
-2.74

> <ROCS_Overlap>
774.689

> <ROCS_Rank>
1597

> <EON_Rank>
538

> <i_qp_#stars>
0

> <i_qp_#amine>
0

> <i_qp_#amidine>
0

> <i_qp_#acid>
0

> <i_qp_#amide>
0

> <i_qp_#rotor>
1

> <i_qp_#rtvFG>
0

> <i_qp_CNS>
0

> <r_qp_mol_MW>
296.408

> <r_qp_dipole>
5.01927

> <r_qp_SASA>
536.446

> <r_qp_FOSA>
327.441

> <r_qp_FISA>
103.443

> <r_qp_PISA>
105.561

> <r_qp_WPSA>
0

> <r_qp_volume>
976.338

> <r_qp_donorHB>
0

> <r_qp_accptHB>
4

> <r_qp_dip^2/V>
0.0258036

> <r_qp_ACxDN^.5/SA>
0

> <r_qp_glob>
0.887236

> <r_qp_QPpolrz>
33.285

> <r_qp_QPlogPC16>
8.89942

> <r_qp_QPlogPoct>
13.2493

> <r_qp_QPlogPw>
6.1512

> <r_qp_QPlogPo/w>
3.15782

> <r_qp_QPlogS>
-4.12156

> <r_qp_CIQPlogS>
-3.88335

> <r_qp_QPlogHERG>
-3.86006

> <r_qp_QPPCaco>
1035.02

> <r_qp_QPlogBB>
-0.372866

> <r_qp_QPPMDCK>
513.459

> <r_qp_QPlogKp>
-2.95809

> <r_qp_IP(eV)>
9.96534

> <r_qp_EA(eV)>
0.679678

> <i_qp_#metab>
3

> <r_qp_QPlogKhsa>
0.339848

> <i_qp_HumanOralAbsorption>
3

> <r_qp_PercentHumanOralAbsorption>
100

> <r_qp_SAfluorine>
0

> <r_qp_SAamideO>
0

> <r_qp_PSA>
56.5928

> <i_qp_#NandO>
2

> <i_qp_RuleOfFive>
0

> <i_qp_RuleOfThree>
0

> <i_qp_#ringatoms>
17

> <i_qp_#in34>
0

> <i_qp_#in56>
17

> <i_qp_#noncon>
10

> <i_qp_#nonHatm>
22

> <r_qp_Jm>
0.0244426

> <stars>
0

> <logP>
3.15782

> <Caco>
1035.02

> <MDCK>
513.459

> <HumanOralAbsorption>
3

> <PercentHumanOralAbsorption>
100.0

> <RuleOfFive>
0

> <base>
fda.sdf

$$$$
untitled.cdx_233
                    3D
 Schrodinger Suite 2022-3.
 55 58  0  0  1  0            999 V2000
   -7.5854   -0.3156   38.6562 C   0  0  0  0  0  0
   -7.6164    1.0376   38.3191 C   0  0  0  0  0  0
   -7.3390   -4.8819   39.5269 C   0  0  0  0  0  0
   -7.7320   -7.1318   37.9458 C   0  0  0  0  0  0
   -9.8876    0.7897   37.5332 C   0  0  0  0  0  0
   -9.7557   -4.7186   36.2321 C   0  0  0  0  0  0
   -8.1708   -4.8203   38.3953 C   0  0  0  0  0  0
   -8.3775   -5.9507   37.5879 C   0  0  0  0  0  0
   -8.7055   -1.1161   38.4318 C   0  0  0  0  0  0
   -6.7065   -6.0753   39.8613 C   0  0  0  0  0  0
   -6.9032   -7.2011   39.0696 C   0  0  0  0  0  0
   -9.8565   -0.5635   37.8703 C   0  0  0  0  0  0
   -8.7675    1.5902   37.7575 C   0  0  0  0  0  0
   -8.8323   -3.6590   38.0062 C   0  0  0  0  0  0
   -5.9106  -10.6616   37.6470 C   0  0  0  0  0  0
   -3.8447   -9.5164   36.7718 C   0  0  0  0  0  0
   -6.0508  -11.4045   36.3255 C   0  0  0  0  0  0
   -3.9957  -10.2650   35.4546 C   0  0  0  0  0  0
   -5.1950   -9.3173   37.4702 C   0  0  2  0  0  0
   -4.7537  -12.4188   34.4538 C   0  0  0  0  0  0
   -6.5163   -6.4817   42.1968 C   0  0  0  0  0  0
   -5.0115   -8.6199   38.8163 C   0  0  0  0  0  0
   -9.1710   -5.9030   36.5037 N   0  0  0  0  0  0
   -9.6333   -3.5763   36.9272 N   0  0  0  0  0  0
   -8.6720   -2.4776   38.7723 N   0  0  0  0  0  0
   -4.6875  -11.5835   35.7026 N   0  3  2  0  0  0
   -5.9023   -6.1279   40.9585 O   0  0  0  0  0  0
   -6.2890   -8.3894   39.3804 O   0  0  0  0  0  0
  -10.9386   -1.3237   37.6500 F   0  0  0  0  0  0
   -8.8095    3.4235   37.3010 Br  0  0  0  0  0  0
   -6.6832   -0.7361   39.0929 H   0  0  0  0  0  0
   -6.7351    1.6475   38.5004 H   0  0  0  0  0  0
   -7.1736   -4.0113   40.1573 H   0  0  0  0  0  0
   -7.8739   -8.0242   37.3380 H   0  0  0  0  0  0
  -10.7922    1.2044   37.0964 H   0  0  0  0  0  0
  -10.3938   -4.6869   35.3573 H   0  0  0  0  0  0
   -6.9067  -10.5003   38.0761 H   0  0  0  0  0  0
   -5.3574  -11.2882   38.3590 H   0  0  0  0  0  0
   -3.1630  -10.0718   37.4290 H   0  0  0  0  0  0
   -3.3764   -8.5435   36.5809 H   0  0  0  0  0  0
   -6.4724  -12.4019   36.4875 H   0  0  0  0  0  0
   -6.6742  -10.8540   35.6120 H   0  0  0  0  0  0
   -4.5979   -9.7026   34.7323 H   0  0  0  0  0  0
   -3.0141  -10.4842   35.0217 H   0  0  0  0  0  0
   -5.8202   -8.6724   36.8383 H   0  0  0  0  0  0
   -3.7405  -12.5078   34.0576 H   0  0  0  0  0  0
   -5.1560  -13.3963   34.7266 H   0  0  0  0  0  0
   -5.4088  -11.9087   33.7451 H   0  0  0  0  0  0
   -5.7638   -6.4865   42.9891 H   0  0  0  0  0  0
   -6.9738   -7.4703   42.1082 H   0  0  0  0  0  0
   -7.2876   -5.7454   42.4343 H   0  0  0  0  0  0
   -4.5023   -7.6675   38.6736 H   0  0  0  0  0  0
   -4.4298   -9.2530   39.4854 H   0  0  0  0  0  0
   -8.5010   -2.6578   39.7545 H   0  0  0  0  0  0
   -4.1291  -12.0865   36.3622 H   0  0  0  0  0  0
  1  2  2  0  0  0
  1  9  1  0  0  0
  1 31  1  0  0  0
  2 13  1  0  0  0
  2 32  1  0  0  0
  3  7  2  0  0  0
  3 10  1  0  0  0
  3 33  1  0  0  0
  4  8  2  0  0  0
  4 11  1  0  0  0
  4 34  1  0  0  0
  5 12  1  0  0  0
  5 13  2  0  0  0
  5 35  1  0  0  0
  6 23  2  0  0  0
  6 24  1  0  0  0
  6 36  1  0  0  0
  7  8  1  0  0  0
  7 14  1  0  0  0
  8 23  1  0  0  0
  9 12  2  0  0  0
  9 25  1  0  0  0
 10 11  2  0  0  0
 10 27  1  0  0  0
 11 28  1  0  0  0
 12 29  1  0  0  0
 13 30  1  0  0  0
 14 24  2  0  0  0
 14 25  1  0  0  0
 15 17  1  0  0  0
 15 19  1  0  0  0
 15 37  1  0  0  0
 15 38  1  0  0  0
 16 18  1  0  0  0
 16 19  1  0  0  0
 16 39  1  0  0  0
 16 40  1  0  0  0
 17 26  1  0  0  0
 17 41  1  0  0  0
 17 42  1  0  0  0
 18 26  1  0  0  0
 18 43  1  0  0  0
 18 44  1  0  0  0
 19 22  1  0  0  0
 19 45  1  0  0  0
 20 26  1  0  0  0
 20 46  1  0  0  0
 20 47  1  0  0  0
 20 48  1  0  0  0
 21 27  1  0  0  0
 21 49  1  0  0  0
 21 50  1  0  0  0
 21 51  1  0  0  0
 22 28  1  0  0  0
 22 52  1  0  0  0
 22 53  1  0  0  0
 25 54  1  0  0  0
 26 55  1  0  0  0
M  CHG  1  26   1
M  END
> <EON_Query>
60c

> <EON_ET_pb>
0.105

> <EON_ET_coul>
0.095

> <EON_ET_combo>
0.615

> <EON_ShapeTanimoto>
0.51

> <ROCS_ShapeQuery>
60c

> <ROCS_TanimotoCombo>
0.795

> <ROCS_ShapeTanimoto>
0.549

> <ROCS_ColorTanimoto>
0.246

> <ROCS_RefTversky>
0.719

> <ROCS_RefColorTversky>
0.43

> <ROCS_RefTverskyCombo>
1.149

> <ROCS_FitTversky>
0.7

> <ROCS_FitColorTversky>
0.365

> <ROCS_FitTverskyCombo>
1.064

> <ROCS_ColorScore>
-4.344

> <ROCS_Overlap>
945.471

> <ROCS_Rank>
670

> <EON_Rank>
561

> <i_qp_#stars>
0

> <i_qp_#amine>
1

> <i_qp_#amidine>
0

> <i_qp_#acid>
0

> <i_qp_#amide>
0

> <i_qp_#rotor>
6

> <i_qp_#rtvFG>
0

> <i_qp_CNS>
1

> <r_qp_mol_MW>
475.36

> <r_qp_dipole>
4.47952

> <r_qp_SASA>
735.086

> <r_qp_FOSA>
351.863

> <r_qp_FISA>
41.3449

> <r_qp_PISA>
234.977

> <r_qp_WPSA>
106.901

> <r_qp_volume>
1314.17

> <r_qp_donorHB>
1

> <r_qp_accptHB>
6

> <r_qp_dip^2/V>
0.015269

> <r_qp_ACxDN^.5/SA>
0.00816231

> <r_qp_glob>
0.789337

> <r_qp_QPpolrz>
44.8307

> <r_qp_QPlogPC16>
13.0335

> <r_qp_QPlogPoct>
19.6885

> <r_qp_QPlogPw>
9.45624

> <r_qp_QPlogPo/w>
4.87879

> <r_qp_QPlogS>
-5.68946

> <r_qp_CIQPlogS>
-6.43528

> <r_qp_QPlogHERG>
-6.78751

> <r_qp_QPPCaco>
1001.67

> <r_qp_QPlogBB>
0.420339

> <r_qp_QPPMDCK>
2111.64

> <r_qp_QPlogKp>
-2.94027

> <r_qp_IP(eV)>
8.74766

> <r_qp_EA(eV)>
1.26928

> <i_qp_#metab>
4

> <r_qp_QPlogKhsa>
0.74255

> <i_qp_HumanOralAbsorption>
3

> <r_qp_PercentHumanOralAbsorption>
100

> <r_qp_SAfluorine>
29.7233

> <r_qp_SAamideO>
0

> <r_qp_PSA>
51.2068

> <i_qp_#NandO>
6

> <i_qp_RuleOfFive>
0

> <i_qp_RuleOfThree>
0

> <i_qp_#ringatoms>
22

> <i_qp_#in34>
0

> <i_qp_#in56>
22

> <i_qp_#noncon>
5

> <i_qp_#nonHatm>
30

> <r_qp_Jm>
0.00111502

> <stars>
0

> <logP>
4.87879

> <Caco>
1001.67

> <MDCK>
2111.64

> <HumanOralAbsorption>
3

> <PercentHumanOralAbsorption>
100.0

> <RuleOfFive>
0

> <base>
fda.sdf

$$$$
ALREX (loteprednol etabonate).cdx_7
                    3D
 Schrodinger Suite 2022-3.
 63 66  0  0  1  0            999 V2000
   -5.9977   -2.0054   38.5110 C   0  0  0  0  0  0
   -8.1088   -2.7347   37.3289 C   0  0  0  0  0  0
   -6.1555   -3.0089   39.3797 C   0  0  0  0  0  0
   -8.2603   -3.7418   38.2032 C   0  0  0  0  0  0
   -6.9778   -1.7901   37.4309 C   0  0  0  0  0  0
   -5.3008  -10.7377   40.2238 C   0  0  0  0  0  0
   -4.5659  -10.7666   37.5747 C   0  0  0  0  0  0
   -9.3904   -4.7255   38.0401 C   0  0  0  0  0  0
   -8.8403   -6.1367   37.8762 C   0  0  0  0  0  0
   -8.1493   -9.0976   38.4442 C   0  0  0  0  0  0
   -7.2203  -10.3181   38.6144 C   0  0  0  0  0  0
   -5.1857   -7.3830   40.0294 C   0  0  0  0  0  0
   -7.8878   -6.5339   39.0191 C   0  0  1  0  0  0
   -7.2465   -7.9000   38.7279 C   0  0  1  0  0  0
   -6.7458   -5.4730   39.2008 C   0  0  2  0  0  0
   -5.6778   -5.9346   40.2446 C   0  0  1  0  0  0
   -7.3054   -4.0054   39.3728 C   0  0  1  0  0  0
   -5.9154   -9.7811   39.2470 C   0  0  1  0  0  0
   -6.3230   -8.4096   39.8563 C   0  0  1  0  0  0
   -8.0808   -3.7823   40.6903 C   0  0  0  0  0  0
   -7.0656   -8.6278   41.2028 C   0  0  0  0  0  0
   -4.9927  -12.0680   34.7468 C   0  0  0  0  0  0
   -3.7842  -11.5178   35.4739 C   0  0  0  0  0  0
   -5.8308  -12.4427   41.7695 C   0  0  0  0  0  0
   -6.8544   -0.8613   36.6396 O   0  0  0  0  0  0
   -4.0995  -10.8164   40.4427 O   0  0  0  0  0  0
   -4.5727  -11.8961   38.0455 O   0  0  0  0  0  0
   -6.1771   -5.8033   41.5695 O   0  0  0  0  0  0
   -6.2806  -11.4831   40.8095 O   0  0  0  0  0  0
   -4.9273   -9.6262   38.2330 O   0  0  0  0  0  0
   -4.1969  -10.4297   36.3074 O   0  0  0  0  0  0
   -5.4796  -11.6043   43.2919 Cl  0  0  0  0  0  0
   -5.1595   -1.3224   38.5844 H   0  0  0  0  0  0
   -8.7992   -2.5837   36.5057 H   0  0  0  0  0  0
   -5.4146   -3.1005   40.1710 H   0  0  0  0  0  0
  -10.0562   -4.6773   38.9092 H   0  0  0  0  0  0
  -10.0096   -4.4831   37.1678 H   0  0  0  0  0  0
   -9.6818   -6.8379   37.8301 H   0  0  0  0  0  0
   -8.3163   -6.2103   36.9138 H   0  0  0  0  0  0
   -8.5721   -9.0639   37.4349 H   0  0  0  0  0  0
   -8.9849   -9.1484   39.1510 H   0  0  0  0  0  0
   -7.7134  -11.0638   39.2485 H   0  0  0  0  0  0
   -7.0351  -10.7832   37.6394 H   0  0  0  0  0  0
   -4.5530   -7.3764   39.1332 H   0  0  0  0  0  0
   -4.5415   -7.6881   40.8634 H   0  0  0  0  0  0
   -8.4822   -6.5927   39.9366 H   0  0  0  0  0  0
   -6.6385   -7.7605   37.8184 H   0  0  0  0  0  0
   -6.1990   -5.4695   38.2416 H   0  0  0  0  0  0
   -4.8016   -5.2807   40.1751 H   0  0  0  0  0  0
   -8.9134   -4.4737   40.7297 H   0  0  0  0  0  0
   -8.4448   -2.7626   40.7154 H   0  0  0  0  0  0
   -7.4136   -3.9581   41.5249 H   0  0  0  0  0  0
   -7.8537   -9.3502   41.0472 H   0  0  0  0  0  0
   -7.4792   -7.6829   41.5238 H   0  0  0  0  0  0
   -6.3564   -8.9951   41.9304 H   0  0  0  0  0  0
   -5.7406  -12.4351   35.4553 H   0  0  0  0  0  0
   -5.4496  -11.2963   34.1187 H   0  0  0  0  0  0
   -4.7027  -12.8887   34.0824 H   0  0  0  0  0  0
   -3.0403  -11.1523   34.7597 H   0  0  0  0  0  0
   -3.3294  -12.2899   36.1017 H   0  0  0  0  0  0
   -4.9108  -12.9243   41.4248 H   0  0  0  0  0  0
   -6.6113  -13.1852   41.9607 H   0  0  0  0  0  0
   -5.4416   -6.0127   42.1674 H   0  0  0  0  0  0
  1  3  2  0  0  0
  1  5  1  0  0  0
  1 33  1  0  0  0
  2  4  2  0  0  0
  2  5  1  0  0  0
  2 34  1  0  0  0
  3 17  1  0  0  0
  3 35  1  0  0  0
  4  8  1  0  0  0
  4 17  1  0  0  0
  5 25  2  0  0  0
  6 18  1  0  0  0
  6 26  2  0  0  0
  6 29  1  0  0  0
  7 27  2  0  0  0
  7 30  1  0  0  0
  7 31  1  0  0  0
  8  9  1  0  0  0
  8 36  1  0  0  0
  8 37  1  0  0  0
  9 13  1  0  0  0
  9 38  1  0  0  0
  9 39  1  0  0  0
 10 11  1  0  0  0
 10 14  1  0  0  0
 10 40  1  0  0  0
 10 41  1  0  0  0
 11 18  1  0  0  0
 11 42  1  0  0  0
 11 43  1  0  0  0
 12 16  1  0  0  0
 12 19  1  0  0  0
 12 44  1  0  0  0
 12 45  1  0  0  0
 13 14  1  0  0  0
 13 15  1  0  0  0
 13 46  1  0  0  0
 14 19  1  0  0  0
 14 47  1  0  0  0
 15 16  1  0  0  0
 15 17  1  0  0  0
 15 48  1  0  0  0
 16 28  1  0  0  0
 16 49  1  0  0  0
 17 20  1  0  0  0
 18 19  1  0  0  0
 18 30  1  0  0  0
 19 21  1  0  0  0
 20 50  1  0  0  0
 20 51  1  0  0  0
 20 52  1  0  0  0
 21 53  1  0  0  0
 21 54  1  0  0  0
 21 55  1  0  0  0
 22 23  1  0  0  0
 22 56  1  0  0  0
 22 57  1  0  0  0
 22 58  1  0  0  0
 23 31  1  0  0  0
 23 59  1  0  0  0
 23 60  1  0  0  0
 24 29  1  0  0  0
 24 32  1  0  0  0
 24 61  1  0  0  0
 24 62  1  0  0  0
 28 63  1  0  0  0
M  END
> <EON_Query>
60c

> <EON_ET_pb>
0.11

> <EON_ET_coul>
0.092

> <EON_ET_combo>
0.615

> <EON_ShapeTanimoto>
0.505

> <ROCS_ShapeQuery>
60c

> <ROCS_TanimotoCombo>
0.711

> <ROCS_ShapeTanimoto>
0.581

> <ROCS_ColorTanimoto>
0.13

> <ROCS_RefTversky>
0.766

> <ROCS_RefColorTversky>
0.21

> <ROCS_RefTverskyCombo>
0.975

> <ROCS_FitTversky>
0.707

> <ROCS_FitColorTversky>
0.256

> <ROCS_FitTverskyCombo>
0.962

> <ROCS_ColorScore>
-2.075

> <ROCS_Overlap>
1010.24

> <ROCS_Rank>
1625

> <EON_Rank>
563

> <i_qp_#stars>
0

> <i_qp_#amine>
0

> <i_qp_#amidine>
0

> <i_qp_#acid>
0

> <i_qp_#amide>
0

> <i_qp_#rotor>
4

> <i_qp_#rtvFG>
1

> <i_qp_CNS>
-1

> <r_qp_mol_MW>
466.958

> <r_qp_dipole>
5.79285

> <r_qp_SASA>
704.057

> <r_qp_FOSA>
426.938

> <r_qp_FISA>
134.322

> <r_qp_PISA>
83.1826

> <r_qp_WPSA>
59.6143

> <r_qp_volume>
1332.56

> <r_qp_donorHB>
1

> <r_qp_accptHB>
7.7

> <r_qp_dip^2/V>
0.0251824

> <r_qp_ACxDN^.5/SA>
0.0109366

> <r_qp_glob>
0.831794

> <r_qp_QPpolrz>
45.4012

> <r_qp_QPlogPC16>
12.7518

> <r_qp_QPlogPoct>
21.1833

> <r_qp_QPlogPw>
11.0806

> <r_qp_QPlogPo/w>
3.81929

> <r_qp_QPlogS>
-5.82765

> <r_qp_CIQPlogS>
-5.85814

> <r_qp_QPlogHERG>
-4.65044

> <r_qp_QPPCaco>
527.379

> <r_qp_QPlogBB>
-0.825597

> <r_qp_QPPMDCK>
525.491

> <r_qp_QPlogKp>
-3.31799

> <r_qp_IP(eV)>
10.1706

> <r_qp_EA(eV)>
0.481894

> <i_qp_#metab>
2

> <r_qp_QPlogKhsa>
0.546482

> <i_qp_HumanOralAbsorption>
3

> <r_qp_PercentHumanOralAbsorption>
100

> <r_qp_SAfluorine>
0

> <r_qp_SAamideO>
0

> <r_qp_PSA>
103.953

> <i_qp_#NandO>
7

> <i_qp_RuleOfFive>
0

> <i_qp_RuleOfThree>
1

> <i_qp_#ringatoms>
17

> <i_qp_#in34>
0

> <i_qp_#in56>
17

> <i_qp_#noncon>
12

> <i_qp_#nonHatm>
32

> <r_qp_Jm>
3.33919E-4

> <stars>
0

> <logP>
3.81929

> <Caco>
527.379

> <MDCK>
525.491

> <HumanOralAbsorption>
3

> <PercentHumanOralAbsorption>
100.0

> <RuleOfFive>
0

> <base>
fda.sdf

$$$$
Molecule_154
                    3D
 Schrodinger Suite 2022-3.
 56 59  0  0  1  0            999 V2000
   -4.6995  -10.5182   34.5820 C   0  0  0  0  0  0
   -4.0609  -11.6779   34.9822 C   0  0  0  0  0  0
   -5.3568   -9.7245   35.5265 C   0  0  0  0  0  0
   -5.9772   -9.7374   42.0769 C   0  0  0  0  0  0
   -4.0992  -12.0444   36.3222 C   0  0  0  0  0  0
   -5.4816  -10.7284   41.2372 C   0  0  0  0  0  0
   -6.4963   -8.4153   40.1360 C   0  0  0  0  0  0
   -5.3850  -10.0514   36.9029 C   0  0  0  0  0  0
   -6.0232   -9.4157   39.2536 C   0  0  0  0  0  0
   -6.4802   -8.5735   41.5241 C   0  0  0  0  0  0
   -4.7614  -11.2492   37.2805 C   0  0  0  0  0  0
   -5.4912  -10.5735   39.8356 C   0  0  0  0  0  0
   -6.7224   -8.0355   37.3403 C   0  0  0  0  0  0
   -6.9775   -6.1857   42.1233 C   0  0  0  0  0  0
   -9.3058   -5.0380   38.6186 C   0  0  0  0  0  0
   -9.1358   -5.4561   36.1737 C   0  0  0  0  0  0
   -8.8591   -3.6127   38.3408 C   0  0  0  0  0  0
   -8.6985   -4.0089   36.0220 C   0  0  0  0  0  0
   -6.3760   -3.5236   43.7040 C   0  0  0  0  0  0
   -8.1680   -8.2650   36.9531 C   0  0  0  0  0  0
   -9.0769   -7.3774   37.7705 C   0  0  0  0  0  0
   -7.6330   -4.1273   43.1148 C   0  0  0  0  0  0
   -6.0721   -9.1813   37.8285 N   0  0  0  0  0  0
   -6.9655   -7.5596   42.3501 N   0  0  0  0  0  0
   -8.7287   -5.9337   37.5478 N   0  3  0  0  0  0
   -6.1884   -6.9400   37.1640 O   0  0  0  0  0  0
   -6.5555   -5.5949   41.1366 O   0  0  0  0  0  0
   -9.2848   -3.1986   37.0417 O   0  0  0  0  0  0
   -7.5478   -5.5547   43.1967 O   0  0  0  0  0  0
   -4.7986  -11.9126   38.9177 S   0  0  0  0  0  0
   -4.6969  -10.2259   33.5358 H   0  0  0  0  0  0
   -3.5447  -12.2996   34.2579 H   0  0  0  0  0  0
   -5.8657   -8.8452   35.1397 H   0  0  0  0  0  0
   -5.9495   -9.8813   43.1536 H   0  0  0  0  0  0
   -3.6062  -12.9709   36.6132 H   0  0  0  0  0  0
   -5.0732  -11.6282   41.6950 H   0  0  0  0  0  0
   -6.8887   -7.4734   39.7599 H   0  0  0  0  0  0
   -8.9341   -5.3907   39.5834 H   0  0  0  0  0  0
  -10.3939   -5.1360   38.5662 H   0  0  0  0  0  0
  -10.2229   -5.5566   36.1093 H   0  0  0  0  0  0
   -8.6456   -6.0990   35.4393 H   0  0  0  0  0  0
   -9.3124   -2.9343   39.0703 H   0  0  0  0  0  0
   -7.7708   -3.5057   38.4221 H   0  0  0  0  0  0
   -7.6070   -3.9093   36.0568 H   0  0  0  0  0  0
   -9.0347   -3.6203   35.0556 H   0  0  0  0  0  0
   -6.2624   -3.8067   44.7542 H   0  0  0  0  0  0
   -5.4918   -3.8564   43.1504 H   0  0  0  0  0  0
   -6.4030   -2.4312   43.6335 H   0  0  0  0  0  0
   -8.3771   -9.3135   37.1594 H   0  0  0  0  0  0
   -8.2588   -8.0814   35.8844 H   0  0  0  0  0  0
   -8.9973   -7.5584   38.8466 H   0  0  0  0  0  0
  -10.1161   -7.4979   37.4519 H   0  0  0  0  0  0
   -7.7407   -3.8404   42.0645 H   0  0  0  0  0  0
   -8.5153   -3.7944   43.6695 H   0  0  0  0  0  0
   -7.3663   -7.8664   43.2424 H   0  0  0  0  0  0
   -7.7333   -5.8566   37.6038 H   0  0  0  0  0  0
  1  2  2  0  0  0
  1  3  1  0  0  0
  1 31  1  0  0  0
  2  5  1  0  0  0
  2 32  1  0  0  0
  3  8  2  0  0  0
  3 33  1  0  0  0
  4  6  2  0  0  0
  4 10  1  0  0  0
  4 34  1  0  0  0
  5 11  2  0  0  0
  5 35  1  0  0  0
  6 12  1  0  0  0
  6 36  1  0  0  0
  7  9  1  0  0  0
  7 10  2  0  0  0
  7 37  1  0  0  0
  8 11  1  0  0  0
  8 23  1  0  0  0
  9 12  2  0  0  0
  9 23  1  0  0  0
 10 24  1  0  0  0
 11 30  1  0  0  0
 12 30  1  0  0  0
 13 20  1  0  0  0
 13 23  1  0  0  0
 13 26  2  0  0  0
 14 24  1  0  0  0
 14 27  2  0  0  0
 14 29  1  0  0  0
 15 17  1  0  0  0
 15 25  1  0  0  0
 15 38  1  0  0  0
 15 39  1  0  0  0
 16 18  1  0  0  0
 16 25  1  0  0  0
 16 40  1  0  0  0
 16 41  1  0  0  0
 17 28  1  0  0  0
 17 42  1  0  0  0
 17 43  1  0  0  0
 18 28  1  0  0  0
 18 44  1  0  0  0
 18 45  1  0  0  0
 19 22  1  0  0  0
 19 46  1  0  0  0
 19 47  1  0  0  0
 19 48  1  0  0  0
 20 21  1  0  0  0
 20 49  1  0  0  0
 20 50  1  0  0  0
 21 25  1  0  0  0
 21 51  1  0  0  0
 21 52  1  0  0  0
 22 29  1  0  0  0
 22 53  1  0  0  0
 22 54  1  0  0  0
 24 55  1  0  0  0
 25 56  1  0  0  0
M  CHG  1  25   1
M  END
> <EON_Query>
60c

> <EON_ET_pb>
0.068

> <EON_ET_coul>
0.014

> <EON_ET_combo>
0.613

> <EON_ShapeTanimoto>
0.546

> <ROCS_ShapeQuery>
60c

> <ROCS_TanimotoCombo>
0.8

> <ROCS_ShapeTanimoto>
0.61

> <ROCS_ColorTanimoto>
0.19

> <ROCS_RefTversky>
0.764

> <ROCS_RefColorTversky>
0.32

> <ROCS_RefTverskyCombo>
1.084

> <ROCS_FitTversky>
0.752

> <ROCS_FitColorTversky>
0.32

> <ROCS_FitTverskyCombo>
1.071

> <ROCS_ColorScore>
-3.197

> <ROCS_Overlap>
1004.47

> <ROCS_Rank>
631

> <EON_Rank>
578

> <i_qp_#stars>
0

> <i_qp_#amine>
1

> <i_qp_#amidine>
0

> <i_qp_#acid>
0

> <i_qp_#amide>
0

> <i_qp_#rotor>
5

> <i_qp_#rtvFG>
0

> <i_qp_CNS>
1

> <r_qp_mol_MW>
427.517

> <r_qp_dipole>
5.34425

> <r_qp_SASA>
667.625

> <r_qp_FOSA>
321.191

> <r_qp_FISA>
62.3529

> <r_qp_PISA>
247.455

> <r_qp_WPSA>
36.6265

> <r_qp_volume>
1257.83

> <r_qp_donorHB>
1

> <r_qp_accptHB>
9.2

> <r_qp_dip^2/V>
0.0227066

> <r_qp_ACxDN^.5/SA>
0.0137802

> <r_qp_glob>
0.844073

> <r_qp_QPpolrz>
43.337

> <r_qp_QPlogPC16>
12.5614

> <r_qp_QPlogPoct>
21.0173

> <r_qp_QPlogPw>
12.8695

> <r_qp_QPlogPo/w>
2.93741

> <r_qp_QPlogS>
-3.1536

> <r_qp_CIQPlogS>
-4.09829

> <r_qp_QPlogHERG>
-5.96133

> <r_qp_QPPCaco>
633.152

> <r_qp_QPlogBB>
0.16708

> <r_qp_QPPMDCK>
530.058

> <r_qp_QPlogKp>
-3.3795

> <r_qp_IP(eV)>
7.91559

> <r_qp_EA(eV)>
0.439608

> <i_qp_#metab>
7

> <r_qp_QPlogKhsa>
0.00919605

> <i_qp_HumanOralAbsorption>
3

> <r_qp_PercentHumanOralAbsorption>
94.2864

> <r_qp_SAfluorine>
0

> <r_qp_SAamideO>
0

> <r_qp_PSA>
76.8159

> <i_qp_#NandO>
7

> <i_qp_RuleOfFive>
0

> <i_qp_RuleOfThree>
1

> <i_qp_#ringatoms>
20

> <i_qp_#in34>
0

> <i_qp_#in56>
20

> <i_qp_#noncon>
4

> <i_qp_#nonHatm>
30

> <r_qp_Jm>
0.125271

> <stars>
0

> <logP>
2.93741

> <Caco>
633.152

> <MDCK>
530.058

> <HumanOralAbsorption>
3

> <PercentHumanOralAbsorption>
94.2864

> <RuleOfFive>
0

> <base>
fda.sdf

$$$$
BindingDB_50408032_mol_1_0
                    3D
 Schrodinger Suite 2022-3.
 34 36  0  0  1  0            999 V2000
   -4.0135  -10.9616   35.6013 C   0  0  0  0  0  0
   -4.5853   -9.7649   35.1690 C   0  0  0  0  0  0
   -4.2608  -11.4262   36.8931 C   0  0  0  0  0  0
   -5.4044   -9.0329   36.0285 C   0  0  0  0  0  0
   -5.0800  -10.6941   37.7527 C   0  0  0  0  0  0
   -8.8108   -5.8150   37.3281 C   0  0  0  0  0  0
   -9.5714   -6.4033   36.3143 C   0  0  0  0  0  0
   -8.4076   -8.4777   36.6526 C   0  0  0  0  0  0
   -5.6517   -9.4975   37.3204 C   0  0  0  0  0  0
   -7.6243   -7.8860   37.6600 C   0  0  0  0  0  0
   -7.8424   -6.5472   38.0433 C   0  0  0  0  0  0
   -9.3784   -7.7376   35.9851 C   0  0  0  0  0  0
   -6.5276   -8.7146   38.2394 C   0  0  0  0  0  0
   -6.6403   -6.5717   40.2459 C   0  0  0  0  0  0
   -7.0890   -8.0156   40.4170 C   0  0  1  0  0  0
   -6.9215   -4.4590   39.0268 C   0  0  0  0  0  0
   -6.2725   -8.7917   39.5010 N   0  0  0  0  0  0
   -7.1170   -5.9072   39.1065 N   0  0  0  0  0  0
   -5.9438   -6.0322   41.1106 O   0  0  0  0  0  0
   -6.9306   -8.3482   41.7936 O   0  0  0  0  0  0
  -10.3246   -8.4678   34.7484 Cl  0  0  0  0  0  0
   -3.3757  -11.5315   34.9321 H   0  0  0  0  0  0
   -4.3923   -9.4033   34.1633 H   0  0  0  0  0  0
   -3.8160  -12.3579   37.2295 H   0  0  0  0  0  0
   -5.8447   -8.1017   35.6814 H   0  0  0  0  0  0
   -5.2658  -11.0656   38.7570 H   0  0  0  0  0  0
   -9.0238   -4.7760   37.5668 H   0  0  0  0  0  0
  -10.3196   -5.8048   35.8008 H   0  0  0  0  0  0
   -8.2528   -9.5197   36.3786 H   0  0  0  0  0  0
   -8.1613   -8.1160   40.2170 H   0  0  0  0  0  0
   -7.7495   -3.9405   39.5172 H   0  0  0  0  0  0
   -6.8766   -4.1406   37.9817 H   0  0  0  0  0  0
   -5.9876   -4.1759   39.5198 H   0  0  0  0  0  0
   -5.9896   -8.2352   41.9985 H   0  0  0  0  0  0
  1  2  2  0  0  0
  1  3  1  0  0  0
  1 22  1  0  0  0
  2  4  1  0  0  0
  2 23  1  0  0  0
  3  5  2  0  0  0
  3 24  1  0  0  0
  4  9  2  0  0  0
  4 25  1  0  0  0
  5  9  1  0  0  0
  5 26  1  0  0  0
  6  7  2  0  0  0
  6 11  1  0  0  0
  6 27  1  0  0  0
  7 12  1  0  0  0
  7 28  1  0  0  0
  8 10  1  0  0  0
  8 12  2  0  0  0
  8 29  1  0  0  0
  9 13  1  0  0  0
 10 11  2  0  0  0
 10 13  1  0  0  0
 11 18  1  0  0  0
 12 21  1  0  0  0
 13 17  2  0  0  0
 14 15  1  0  0  0
 14 18  1  0  0  0
 14 19  2  0  0  0
 15 17  1  0  0  0
 15 20  1  0  0  0
 15 30  1  0  0  0
 16 18  1  0  0  0
 16 31  1  0  0  0
 16 32  1  0  0  0
 16 33  1  0  0  0
 20 34  1  0  0  0
M  END
> <EON_Query>
60c

> <EON_ET_pb>
0.077

> <EON_ET_coul>
0.074

> <EON_ET_combo>
0.613

> <EON_ShapeTanimoto>
0.536

> <ROCS_ShapeQuery>
60c

> <ROCS_TanimotoCombo>
0.715

> <ROCS_ShapeTanimoto>
0.554

> <ROCS_ColorTanimoto>
0.161

> <ROCS_RefTversky>
0.625

> <ROCS_RefColorTversky>
0.24

> <ROCS_RefTverskyCombo>
0.864

> <ROCS_FitTversky>
0.83

> <ROCS_FitColorTversky>
0.33

> <ROCS_FitTverskyCombo>
1.16

> <ROCS_ColorScore>
-2.361

> <ROCS_Overlap>
809.044

> <ROCS_Rank>
1569

> <EON_Rank>
581

> <i_qp_#stars>
0

> <i_qp_#amine>
0

> <i_qp_#amidine>
0

> <i_qp_#acid>
0

> <i_qp_#amide>
0

> <i_qp_#rotor>
1

> <i_qp_#rtvFG>
0

> <i_qp_CNS>
0

> <r_qp_mol_MW>
300.744

> <r_qp_dipole>
5.28073

> <r_qp_SASA>
527.744

> <r_qp_FOSA>
89.35

> <r_qp_FISA>
101.495

> <r_qp_PISA>
265.711

> <r_qp_WPSA>
71.1879

> <r_qp_volume>
907.222

> <r_qp_donorHB>
1

> <r_qp_accptHB>
5.7

> <r_qp_dip^2/V>
0.0307379

> <r_qp_ACxDN^.5/SA>
0.0108007

> <r_qp_glob>
0.858785

> <r_qp_QPpolrz>
32.0485

> <r_qp_QPlogPC16>
9.95163

> <r_qp_QPlogPoct>
15.7531

> <r_qp_QPlogPw>
10.3703

> <r_qp_QPlogPo/w>
2.50487

> <r_qp_QPlogS>
-3.78834

> <r_qp_CIQPlogS>
-3.72938

> <r_qp_QPlogHERG>
-5.08418

> <r_qp_QPPCaco>
1080.01

> <r_qp_QPlogBB>
-0.239566

> <r_qp_QPPMDCK>
1319.61

> <r_qp_QPlogKp>
-2.35802

> <r_qp_IP(eV)>
9.20363

> <r_qp_EA(eV)>
0.906427

> <i_qp_#metab>
1

> <r_qp_QPlogKhsa>
-0.0318024

> <i_qp_HumanOralAbsorption>
3

> <r_qp_PercentHumanOralAbsorption>
95.9048

> <r_qp_SAfluorine>
0

> <r_qp_SAamideO>
0

> <r_qp_PSA>
66.8646

> <i_qp_#NandO>
4

> <i_qp_RuleOfFive>
0

> <i_qp_RuleOfThree>
0

> <i_qp_#ringatoms>
17

> <i_qp_#in34>
0

> <i_qp_#in56>
12

> <i_qp_#noncon>
1

> <i_qp_#nonHatm>
21

> <r_qp_Jm>
0.115136

> <stars>
0

> <logP>
2.50487

> <Caco>
1080.01

> <MDCK>
1319.61

> <HumanOralAbsorption>
3

> <PercentHumanOralAbsorption>
95.9048

> <RuleOfFive>
0

> <base>
fda.sdf

$$$$
Molecule_168
                    3D
 Schrodinger Suite 2022-3.
 43 44  0  0  1  0            999 V2000
   -4.0237  -12.7194   35.6280 C   0  0  0  0  0  0
   -4.1213  -13.1903   36.9374 C   0  0  0  0  0  0
   -4.4549  -11.4301   35.3164 C   0  0  0  0  0  0
   -4.6503  -12.3716   37.9352 C   0  0  0  0  0  0
   -4.9839  -10.6114   36.3142 C   0  0  0  0  0  0
   -6.3016  -10.8043   39.7401 C   0  0  0  0  0  0
   -6.8314   -9.9902   40.7412 C   0  0  0  0  0  0
   -6.0184   -8.0335   39.5803 C   0  0  0  0  0  0
   -5.0816  -11.0822   37.6236 C   0  0  0  0  0  0
   -5.6301  -10.2330   38.6591 C   0  0  0  0  0  0
   -6.6898   -8.6049   40.6613 C   0  0  0  0  0  0
   -5.4885   -8.8476   38.5792 C   0  0  0  0  0  0
   -8.7708   -3.0886   38.3837 C   0  0  0  0  0  0
   -7.0781   -6.2394   41.4371 C   0  0  0  0  0  0
   -9.1482   -3.3278   36.9534 C   0  0  0  0  0  0
   -6.6954   -8.0529   43.1332 C   0  0  0  0  0  0
   -8.6314   -3.5575   41.3672 C   0  0  0  0  0  0
   -7.2661   -7.7177   41.7522 C   0  0  2  0  0  0
   -8.1008   -4.4290   40.2382 C   0  0  2  0  0  0
   -8.3518   -2.0222   38.8129 O   0  0  0  0  0  0
   -6.1314   -5.5559   41.8041 O   0  0  0  0  0  0
   -8.9699   -4.2295   39.1034 O   0  0  0  0  0  0
   -8.1169   -5.8062   40.6619 O   0  0  0  0  0  0
   -4.8455   -8.2834   37.5466 F   0  0  0  0  0  0
   -3.6102  -13.3565   34.8516 H   0  0  0  0  0  0
   -3.7841  -14.1936   37.1804 H   0  0  0  0  0  0
   -4.3780  -11.0624   34.2974 H   0  0  0  0  0  0
   -4.7195  -12.7530   38.9513 H   0  0  0  0  0  0
   -5.3155   -9.6083   36.0565 H   0  0  0  0  0  0
   -6.4213  -11.8824   39.8162 H   0  0  0  0  0  0
   -7.3528  -10.4439   41.5797 H   0  0  0  0  0  0
   -5.9026   -6.9555   39.5098 H   0  0  0  0  0  0
   -8.2787   -3.6831   36.3947 H   0  0  0  0  0  0
   -9.4896   -2.3895   36.5067 H   0  0  0  0  0  0
   -9.9630   -4.0544   36.9013 H   0  0  0  0  0  0
   -5.6113   -7.8983   43.1623 H   0  0  0  0  0  0
   -7.1496   -7.4429   43.9219 H   0  0  0  0  0  0
   -6.8885   -9.1002   43.3913 H   0  0  0  0  0  0
   -9.6425   -3.8634   41.6544 H   0  0  0  0  0  0
   -8.6836   -2.5095   41.0505 H   0  0  0  0  0  0
   -7.9802   -3.6013   42.2452 H   0  0  0  0  0  0
   -8.3503   -7.8922   41.7882 H   0  0  0  0  0  0
   -7.0875   -4.1105   39.9616 H   0  0  0  0  0  0
  1  2  2  0  0  0
  1  3  1  0  0  0
  1 25  1  0  0  0
  2  4  1  0  0  0
  2 26  1  0  0  0
  3  5  2  0  0  0
  3 27  1  0  0  0
  4  9  2  0  0  0
  4 28  1  0  0  0
  5  9  1  0  0  0
  5 29  1  0  0  0
  6  7  2  0  0  0
  6 10  1  0  0  0
  6 30  1  0  0  0
  7 11  1  0  0  0
  7 31  1  0  0  0
  8 11  2  0  0  0
  8 12  1  0  0  0
  8 32  1  0  0  0
  9 10  1  0  0  0
 10 12  2  0  0  0
 11 18  1  0  0  0
 12 24  1  0  0  0
 13 15  1  0  0  0
 13 20  2  0  0  0
 13 22  1  0  0  0
 14 18  1  0  0  0
 14 21  2  0  0  0
 14 23  1  0  0  0
 15 33  1  0  0  0
 15 34  1  0  0  0
 15 35  1  0  0  0
 16 18  1  0  0  0
 16 36  1  0  0  0
 16 37  1  0  0  0
 16 38  1  0  0  0
 17 19  1  0  0  0
 17 39  1  0  0  0
 17 40  1  0  0  0
 17 41  1  0  0  0
 18 42  1  0  0  0
 19 22  1  0  0  0
 19 23  1  0  0  0
 19 43  1  0  0  0
M  END
> <EON_Query>
60c

> <EON_ET_pb>
0.128

> <EON_ET_coul>
0.129

> <EON_ET_combo>
0.613

> <EON_ShapeTanimoto>
0.485

> <ROCS_ShapeQuery>
60c

> <ROCS_TanimotoCombo>
0.787

> <ROCS_ShapeTanimoto>
0.566

> <ROCS_ColorTanimoto>
0.22

> <ROCS_RefTversky>
0.662

> <ROCS_RefColorTversky>
0.278

> <ROCS_RefTverskyCombo>
0.94

> <ROCS_FitTversky>
0.797

> <ROCS_FitColorTversky>
0.516

> <ROCS_FitTverskyCombo>
1.313

> <ROCS_ColorScore>
-2.709

> <ROCS_Overlap>
861.01

> <ROCS_Rank>
754

> <EON_Rank>
582

> <i_qp_#stars>
0

> <i_qp_#amine>
0

> <i_qp_#amidine>
0

> <i_qp_#acid>
0

> <i_qp_#amide>
0

> <i_qp_#rotor>
5

> <i_qp_#rtvFG>
3

> <i_qp_CNS>
0

> <r_qp_mol_MW>
330.355

> <r_qp_dipole>
5.23551

> <r_qp_SASA>
632.934

> <r_qp_FOSA>
259.904

> <r_qp_FISA>
79.5946

> <r_qp_PISA>
263.864

> <r_qp_WPSA>
29.5711

> <r_qp_volume>
1090.33

> <r_qp_donorHB>
0

> <r_qp_accptHB>
4

> <r_qp_dip^2/V>
0.0251397

> <r_qp_ACxDN^.5/SA>
0

> <r_qp_glob>
0.809429

> <r_qp_QPpolrz>
36.7904

> <r_qp_QPlogPC16>
10.5449

> <r_qp_QPlogPoct>
14.3856

> <r_qp_QPlogPw>
6.42595

> <r_qp_QPlogPo/w>
4.33134

> <r_qp_QPlogS>
-5.43179

> <r_qp_CIQPlogS>
-4.95247

> <r_qp_QPlogHERG>
-5.87399

> <r_qp_QPPCaco>
1742.23

> <r_qp_QPlogBB>
-0.475199

> <r_qp_QPPMDCK>
1309.02

> <r_qp_QPlogKp>
-1.57687

> <r_qp_IP(eV)>
9.18931

> <r_qp_EA(eV)>
0.636658

> <i_qp_#metab>
1

> <r_qp_QPlogKhsa>
0.500928

> <i_qp_HumanOralAbsorption>
3

> <r_qp_PercentHumanOralAbsorption>
100

> <r_qp_SAfluorine>
29.5711

> <r_qp_SAamideO>
0

> <r_qp_PSA>
66.0892

> <i_qp_#NandO>
4

> <i_qp_RuleOfFive>
0

> <i_qp_RuleOfThree>
0

> <i_qp_#ringatoms>
12

> <i_qp_#in34>
0

> <i_qp_#in56>
12

> <i_qp_#noncon>
0

> <i_qp_#nonHatm>
24

> <r_qp_Jm>
0.0323834

> <stars>
0

> <logP>
4.33134

> <Caco>
1742.23

> <MDCK>
1309.02

> <HumanOralAbsorption>
3

> <PercentHumanOralAbsorption>
100.0

> <RuleOfFive>
0

> <base>
fda.sdf

$$$$
Altrenogest.cdx_2
                    3D
 Schrodinger Suite 2022-3.
 49 52  0  0  1  0            999 V2000
   -7.5207   -7.4040   35.4393 C   0  0  0  0  0  0
   -4.9808  -11.1864   37.3656 C   0  0  0  0  0  0
   -8.1181   -6.2181   35.6606 C   0  0  0  0  0  0
   -7.0790   -8.3056   36.5128 C   0  0  0  0  0  0
   -5.5694   -9.9838   37.4626 C   0  0  0  0  0  0
   -6.1751   -9.2959   36.3186 C   0  0  0  0  0  0
   -4.9591  -11.9157   36.0736 C   0  0  0  0  0  0
   -6.5277   -1.2226   36.4996 C   0  0  0  0  0  0
   -6.6189   -2.2849   37.3074 C   0  0  0  0  0  0
   -5.5884   -9.2215   38.7615 C   0  0  0  0  0  0
   -5.6084   -9.7485   34.9902 C   0  0  0  0  0  0
   -5.6238  -11.2703   34.8800 C   0  0  0  0  0  0
   -7.0070   -8.7731   39.0684 C   0  0  0  0  0  0
   -7.8720   -5.7595   39.3827 C   0  0  0  0  0  0
   -8.0912   -4.2865   38.9768 C   0  0  0  0  0  0
   -7.6408   -7.9745   37.9156 C   0  0  1  0  0  0
   -7.5390   -6.4523   38.0698 C   0  0  1  0  0  0
   -8.4586   -5.7256   37.0463 C   0  0  1  0  0  0
   -8.1591   -4.2447   37.4223 C   0  0  2  0  0  0
   -9.9753   -6.0221   37.2278 C   0  0  0  0  0  0
   -6.8651   -3.6769   36.8237 C   0  0  0  0  0  0
   -4.4549  -13.0348   36.0090 O   0  0  0  0  0  0
   -9.2187   -3.3824   37.0135 O   0  0  0  0  0  0
   -7.3644   -7.6883   34.4106 H   0  0  0  0  0  0
   -4.4636  -11.6460   38.1964 H   0  0  0  0  0  0
   -8.4163   -5.6077   34.8117 H   0  0  0  0  0  0
   -6.3481   -0.2268   36.8893 H   0  0  0  0  0  0
   -6.6322   -1.3382   35.4263 H   0  0  0  0  0  0
   -6.4898   -2.1387   38.3769 H   0  0  0  0  0  0
   -5.2106   -9.8633   39.5661 H   0  0  0  0  0  0
   -4.9370   -8.3417   38.7188 H   0  0  0  0  0  0
   -6.2226   -9.3235   34.1937 H   0  0  0  0  0  0
   -4.5862   -9.4250   34.8237 H   0  0  0  0  0  0
   -5.1042  -11.6074   33.9733 H   0  0  0  0  0  0
   -6.6632  -11.6197   34.8280 H   0  0  0  0  0  0
   -7.6325   -9.6631   39.2910 H   0  0  0  0  0  0
   -7.0191   -8.1700   40.0034 H   0  0  0  0  0  0
   -7.0620   -5.8527   40.1134 H   0  0  0  0  0  0
   -8.7779   -6.1717   39.8400 H   0  0  0  0  0  0
   -9.0128   -3.9070   39.4339 H   0  0  0  0  0  0
   -7.2728   -3.6644   39.3577 H   0  0  0  0  0  0
   -8.7169   -8.2549   37.8913 H   0  0  0  0  0  0
   -6.4890   -6.1970   37.8520 H   0  0  0  0  0  0
  -10.2746   -5.6874   38.2100 H   0  0  0  0  0  0
  -10.1305   -7.0864   37.1288 H   0  0  0  0  0  0
  -10.5224   -5.4884   36.4646 H   0  0  0  0  0  0
   -6.9392   -3.7182   35.7350 H   0  0  0  0  0  0
   -6.0318   -4.3158   37.1217 H   0  0  0  0  0  0
   -9.2212   -3.3889   36.0439 H   0  0  0  0  0  0
  1  3  2  0  0  0
  1  4  1  0  0  0
  1 24  1  0  0  0
  2  5  2  0  0  0
  2  7  1  0  0  0
  2 25  1  0  0  0
  3 18  1  0  0  0
  3 26  1  0  0  0
  4  6  2  0  0  0
  4 16  1  0  0  0
  5  6  1  0  0  0
  5 10  1  0  0  0
  6 11  1  0  0  0
  7 12  1  0  0  0
  7 22  2  0  0  0
  8  9  2  0  0  0
  8 27  1  0  0  0
  8 28  1  0  0  0
  9 21  1  0  0  0
  9 29  1  0  0  0
 10 13  1  0  0  0
 10 30  1  0  0  0
 10 31  1  0  0  0
 11 12  1  0  0  0
 11 32  1  0  0  0
 11 33  1  0  0  0
 12 34  1  0  0  0
 12 35  1  0  0  0
 13 16  1  0  0  0
 13 36  1  0  0  0
 13 37  1  0  0  0
 14 15  1  0  0  0
 14 17  1  0  0  0
 14 38  1  0  0  0
 14 39  1  0  0  0
 15 19  1  0  0  0
 15 40  1  0  0  0
 15 41  1  0  0  0
 16 17  1  0  0  0
 16 42  1  0  0  0
 17 18  1  0  0  0
 17 43  1  0  0  0
 18 19  1  0  0  0
 18 20  1  0  0  0
 19 21  1  0  0  0
 19 23  1  0  0  0
 20 44  1  0  0  0
 20 45  1  0  0  0
 20 46  1  0  0  0
 21 47  1  0  0  0
 21 48  1  0  0  0
 23 49  1  0  0  0
M  END
> <EON_Query>
60c

> <EON_ET_pb>
0.136

> <EON_ET_coul>
0.11

> <EON_ET_combo>
0.613

> <EON_ShapeTanimoto>
0.476

> <ROCS_ShapeQuery>
60c

> <ROCS_TanimotoCombo>
0.677

> <ROCS_ShapeTanimoto>
0.469

> <ROCS_ColorTanimoto>
0.208

> <ROCS_RefTversky>
0.576

> <ROCS_RefColorTversky>
0.313

> <ROCS_RefTverskyCombo>
0.889

> <ROCS_FitTversky>
0.717

> <ROCS_FitColorTversky>
0.382

> <ROCS_FitTverskyCombo>
1.099

> <ROCS_ColorScore>
-3.101

> <ROCS_Overlap>
748.474

> <ROCS_Rank>
2068

> <EON_Rank>
583

> <i_qp_#stars>
0

> <i_qp_#amine>
0

> <i_qp_#amidine>
0

> <i_qp_#acid>
0

> <i_qp_#amide>
0

> <i_qp_#rotor>
3

> <i_qp_#rtvFG>
0

> <i_qp_CNS>
0

> <r_qp_mol_MW>
310.435

> <r_qp_dipole>
4.21687

> <r_qp_SASA>
575.202

> <r_qp_FOSA>
374.97

> <r_qp_FISA>
82.8122

> <r_qp_PISA>
117.42

> <r_qp_WPSA>
0

> <r_qp_volume>
1039.01

> <r_qp_donorHB>
1

> <r_qp_accptHB>
2.75

> <r_qp_dip^2/V>
0.0171144

> <r_qp_ACxDN^.5/SA>
0.00478093

> <r_qp_glob>
0.862497

> <r_qp_QPpolrz>
34.6223

> <r_qp_QPlogPC16>
9.5527

> <r_qp_QPlogPoct>
14.1703

> <r_qp_QPlogPw>
5.97704

> <r_qp_QPlogPo/w>
4.21089

> <r_qp_QPlogS>
-5.26529

> <r_qp_CIQPlogS>
-4.77232

> <r_qp_QPlogHERG>
-4.31691

> <r_qp_QPPCaco>
1624.02

> <r_qp_QPlogBB>
-0.359472

> <r_qp_QPPMDCK>
835.556

> <r_qp_QPlogKp>
-2.34406

> <r_qp_IP(eV)>
9.0498

> <r_qp_EA(eV)>
0.830288

> <i_qp_#metab>
7

> <r_qp_QPlogKhsa>
0.793787

> <i_qp_HumanOralAbsorption>
3

> <r_qp_PercentHumanOralAbsorption>
100

> <r_qp_SAfluorine>
0

> <r_qp_SAamideO>
0

> <r_qp_PSA>
47.945

> <i_qp_#NandO>
2

> <i_qp_RuleOfFive>
0

> <i_qp_RuleOfThree>
1

> <i_qp_#ringatoms>
17

> <i_qp_#in34>
0

> <i_qp_#in56>
17

> <i_qp_#noncon>
10

> <i_qp_#nonHatm>
23

> <r_qp_Jm>
0.00763175

> <stars>
0

> <logP>
4.21089

> <Caco>
1624.02

> <MDCK>
835.556

> <HumanOralAbsorption>
3

> <PercentHumanOralAbsorption>
100.0

> <RuleOfFive>
0

> <base>
fda.sdf

$$$$
Molecule_0
                    3D
 Schrodinger Suite 2022-3.
 31 33  0  0  1  0            999 V2000
   -4.0479  -10.9934   35.5625 C   0  0  0  0  0  0
   -4.0951   -9.6036   35.4543 C   0  0  0  0  0  0
   -4.7989  -11.6425   36.5425 C   0  0  0  0  0  0
   -4.8930   -8.8628   36.3262 C   0  0  0  0  0  0
   -5.5968  -10.9018   37.4145 C   0  0  0  0  0  0
   -8.6810   -5.7352   37.3680 C   0  0  0  0  0  0
   -9.4081   -6.2490   36.2943 C   0  0  0  0  0  0
   -8.3374   -8.3876   36.5994 C   0  0  0  0  0  0
   -5.6438   -9.5119   37.3063 C   0  0  0  0  0  0
   -7.5858   -7.8721   37.6681 C   0  0  0  0  0  0
   -7.7973   -6.5503   38.0910 C   0  0  0  0  0  0
   -9.2491   -7.5793   35.9215 C   0  0  0  0  0  0
   -6.4968   -8.7198   38.2386 C   0  0  0  0  0  0
   -6.6380   -6.5980   40.3036 C   0  0  0  0  0  0
   -7.0035   -8.0642   40.4590 C   0  0  1  0  0  0
   -6.2093   -8.8017   39.4924 N   0  0  0  0  0  0
   -7.1557   -5.9566   39.1971 N   0  0  0  0  0  0
   -5.9876   -5.9943   41.1589 O   0  0  0  0  0  0
   -6.7628   -8.4149   41.8201 O   0  0  0  0  0  0
  -10.1567   -8.2190   34.6065 Cl  0  0  0  0  0  0
   -3.4267  -11.5701   34.8837 H   0  0  0  0  0  0
   -3.5101   -9.0983   34.6913 H   0  0  0  0  0  0
   -4.7625  -12.7247   36.6266 H   0  0  0  0  0  0
   -4.9222   -7.7802   36.2331 H   0  0  0  0  0  0
   -6.1776  -11.4182   38.1744 H   0  0  0  0  0  0
   -8.8374   -4.6978   37.6562 H   0  0  0  0  0  0
  -10.1022   -5.6006   35.7658 H   0  0  0  0  0  0
   -8.1997   -9.4181   36.2781 H   0  0  0  0  0  0
   -8.0767   -8.2071   40.3038 H   0  0  0  0  0  0
   -7.0646   -4.9438   39.1774 H   0  0  0  0  0  0
   -5.8201   -8.2567   41.9839 H   0  0  0  0  0  0
  1  2  2  0  0  0
  1  3  1  0  0  0
  1 21  1  0  0  0
  2  4  1  0  0  0
  2 22  1  0  0  0
  3  5  2  0  0  0
  3 23  1  0  0  0
  4  9  2  0  0  0
  4 24  1  0  0  0
  5  9  1  0  0  0
  5 25  1  0  0  0
  6  7  2  0  0  0
  6 11  1  0  0  0
  6 26  1  0  0  0
  7 12  1  0  0  0
  7 27  1  0  0  0
  8 10  1  0  0  0
  8 12  2  0  0  0
  8 28  1  0  0  0
  9 13  1  0  0  0
 10 11  2  0  0  0
 10 13  1  0  0  0
 11 17  1  0  0  0
 12 20  1  0  0  0
 13 16  2  0  0  0
 14 15  1  0  0  0
 14 17  1  0  0  0
 14 18  2  0  0  0
 15 16  1  0  0  0
 15 19  1  0  0  0
 15 29  1  0  0  0
 17 30  1  0  0  0
 19 31  1  0  0  0
M  END
> <EON_Query>
60c

> <EON_ET_pb>
0.09

> <EON_ET_coul>
0.081

> <EON_ET_combo>
0.612

> <EON_ShapeTanimoto>
0.522

> <ROCS_ShapeQuery>
60c

> <ROCS_TanimotoCombo>
0.7

> <ROCS_ShapeTanimoto>
0.541

> <ROCS_ColorTanimoto>
0.158

> <ROCS_RefTversky>
0.604

> <ROCS_RefColorTversky>
0.248

> <ROCS_RefTverskyCombo>
0.853

> <ROCS_FitTversky>
0.839

> <ROCS_FitColorTversky>
0.303

> <ROCS_FitTverskyCombo>
1.142

> <ROCS_ColorScore>
-2.461

> <ROCS_Overlap>
781.27

> <ROCS_Rank>
1775

> <EON_Rank>
586

> <i_qp_#stars>
0

> <i_qp_#amine>
0

> <i_qp_#amidine>
0

> <i_qp_#acid>
0

> <i_qp_#amide>
0

> <i_qp_#rotor>
1

> <i_qp_#rtvFG>
0

> <i_qp_CNS>
0

> <r_qp_mol_MW>
286.717

> <r_qp_dipole>
5.54382

> <r_qp_SASA>
507.822

> <r_qp_FOSA>
17.2474

> <r_qp_FISA>
132.298

> <r_qp_PISA>
286.809

> <r_qp_WPSA>
71.4673

> <r_qp_volume>
859.609

> <r_qp_donorHB>
2

> <r_qp_accptHB>
5.2

> <r_qp_dip^2/V>
0.0357534

> <r_qp_ACxDN^.5/SA>
0.0144813

> <r_qp_glob>
0.86097

> <r_qp_QPpolrz>
30.3445

> <r_qp_QPlogPC16>
10.0844

> <r_qp_QPlogPoct>
16.5941

> <r_qp_QPlogPw>
11.6477

> <r_qp_QPlogPo/w>
2.23945

> <r_qp_QPlogS>
-3.95035

> <r_qp_CIQPlogS>
-3.62162

> <r_qp_QPlogHERG>
-5.14944

> <r_qp_QPPCaco>
551.205

> <r_qp_QPlogBB>
-0.511281

> <r_qp_QPPMDCK>
640.086

> <r_qp_QPlogKp>
-2.85141

> <r_qp_IP(eV)>
9.25886

> <r_qp_EA(eV)>
0.908964

> <i_qp_#metab>
1

> <r_qp_QPlogKhsa>
-0.061471

> <i_qp_HumanOralAbsorption>
3

> <r_qp_PercentHumanOralAbsorption>
89.1223

> <r_qp_SAfluorine>
0

> <r_qp_SAamideO>
0

> <r_qp_PSA>
78.3651

> <i_qp_#NandO>
4

> <i_qp_RuleOfFive>
0

> <i_qp_RuleOfThree>
0

> <i_qp_#ringatoms>
17

> <i_qp_#in34>
0

> <i_qp_#in56>
12

> <i_qp_#noncon>
1

> <i_qp_#nonHatm>
20

> <r_qp_Jm>
0.0495755

> <stars>
0

> <logP>
2.23945

> <Caco>
551.205

> <MDCK>
640.086

> <HumanOralAbsorption>
3

> <PercentHumanOralAbsorption>
89.1223

> <RuleOfFive>
0

> <base>
fda.sdf

$$$$
Molecule_1
                    3D
 Schrodinger Suite 2022-3.
 31 33  0  0  1  0            999 V2000
   -8.6301   -5.4506   37.3482 C   0  0  0  0  0  0
   -8.6644   -4.2407   38.0413 C   0  0  0  0  0  0
   -7.9152   -6.5308   37.8656 C   0  0  0  0  0  0
   -5.6888  -10.7853   37.7050 C   0  0  0  0  0  0
   -7.9837   -4.1108   39.2517 C   0  0  0  0  0  0
   -5.1260  -10.2680   36.5383 C   0  0  0  0  0  0
   -5.3249   -8.0394   37.4368 C   0  0  0  0  0  0
   -7.2346   -6.4010   39.0762 C   0  0  0  0  0  0
   -5.9119   -8.5504   38.6060 C   0  0  0  0  0  0
   -6.0465   -9.9387   38.7650 C   0  0  0  0  0  0
   -4.9281   -8.8973   36.4117 C   0  0  0  0  0  0
   -7.2689   -5.1911   39.7693 C   0  0  0  0  0  0
   -6.4840   -7.5831   39.5893 C   0  0  0  0  0  0
   -6.5350  -10.0631   41.2120 C   0  0  0  0  0  0
   -5.6828   -8.8267   41.4409 C   0  0  1  0  0  0
   -6.4061   -7.7042   40.8702 N   0  0  0  0  0  0
   -6.5495  -10.5616   39.9255 N   0  0  0  0  0  0
   -7.1118  -10.6375   42.1374 O   0  0  0  0  0  0
   -5.4474   -8.7329   42.8442 O   0  0  0  0  0  0
   -4.2199   -8.2587   34.9791 Cl  0  0  0  0  0  0
   -6.4400   -4.9885   41.2708 Cl  0  0  0  0  0  0
   -9.1601   -5.5514   36.4055 H   0  0  0  0  0  0
   -9.2214   -3.3997   37.6383 H   0  0  0  0  0  0
   -7.8967   -7.4683   37.3152 H   0  0  0  0  0  0
   -5.8142  -11.8626   37.7915 H   0  0  0  0  0  0
   -8.0206   -3.1610   39.7794 H   0  0  0  0  0  0
   -4.8379  -10.9492   35.7419 H   0  0  0  0  0  0
   -5.1930   -6.9665   37.3125 H   0  0  0  0  0  0
   -4.6968   -8.9547   40.9852 H   0  0  0  0  0  0
   -6.9693  -11.4795   39.8006 H   0  0  0  0  0  0
   -6.3174   -8.6571   43.2661 H   0  0  0  0  0  0
  1  2  2  0  0  0
  1  3  1  0  0  0
  1 22  1  0  0  0
  2  5  1  0  0  0
  2 23  1  0  0  0
  3  8  2  0  0  0
  3 24  1  0  0  0
  4  6  2  0  0  0
  4 10  1  0  0  0
  4 25  1  0  0  0
  5 12  2  0  0  0
  5 26  1  0  0  0
  6 11  1  0  0  0
  6 27  1  0  0  0
  7  9  1  0  0  0
  7 11  2  0  0  0
  7 28  1  0  0  0
  8 12  1  0  0  0
  8 13  1  0  0  0
  9 10  2  0  0  0
  9 13  1  0  0  0
 10 17  1  0  0  0
 11 20  1  0  0  0
 12 21  1  0  0  0
 13 16  2  0  0  0
 14 15  1  0  0  0
 14 17  1  0  0  0
 14 18  2  0  0  0
 15 16  1  0  0  0
 15 19  1  0  0  0
 15 29  1  0  0  0
 17 30  1  0  0  0
 19 31  1  0  0  0
M  END
> <EON_Query>
60c

> <EON_ET_pb>
0.097

> <EON_ET_coul>
0.114

> <EON_ET_combo>
0.611

> <EON_ShapeTanimoto>
0.514

> <ROCS_ShapeQuery>
60c

> <ROCS_TanimotoCombo>
0.702

> <ROCS_ShapeTanimoto>
0.587

> <ROCS_ColorTanimoto>
0.115

> <ROCS_RefTversky>
0.646

> <ROCS_RefColorTversky>
0.187

> <ROCS_RefTverskyCombo>
0.833

> <ROCS_FitTversky>
0.866

> <ROCS_FitColorTversky>
0.228

> <ROCS_FitTverskyCombo>
1.094

> <ROCS_ColorScore>
-1.852

> <ROCS_Overlap>
836.876

> <ROCS_Rank>
1743

> <EON_Rank>
589

> <i_qp_#stars>
0

> <i_qp_#amine>
0

> <i_qp_#amidine>
0

> <i_qp_#acid>
0

> <i_qp_#amide>
0

> <i_qp_#rotor>
1

> <i_qp_#rtvFG>
0

> <i_qp_CNS>
0

> <r_qp_mol_MW>
321.162

> <r_qp_dipole>
6.95788

> <r_qp_SASA>
515.773

> <r_qp_FOSA>
16.8547

> <r_qp_FISA>
124.294

> <r_qp_PISA>
251.24

> <r_qp_WPSA>
123.384

> <r_qp_volume>
884.565

> <r_qp_donorHB>
2

> <r_qp_accptHB>
5.2

> <r_qp_dip^2/V>
0.0547299

> <r_qp_ACxDN^.5/SA>
0.014258

> <r_qp_glob>
0.864025

> <r_qp_QPpolrz>
31.0036

> <r_qp_QPlogPC16>
10.4066

> <r_qp_QPlogPoct>
17.2597

> <r_qp_QPlogPw>
11.3886

> <r_qp_QPlogPo/w>
2.50994

> <r_qp_QPlogS>
-3.61175

> <r_qp_CIQPlogS>
-4.2856

> <r_qp_QPlogHERG>
-4.93038

> <r_qp_QPPCaco>
656.475

> <r_qp_QPlogBB>
-0.303994

> <r_qp_QPPMDCK>
1488.28

> <r_qp_QPlogKp>
-2.82919

> <r_qp_IP(eV)>
9.28184

> <r_qp_EA(eV)>
1.00133

> <i_qp_#metab>
1

> <r_qp_QPlogKhsa>
0.00128957

> <i_qp_HumanOralAbsorption>
3

> <r_qp_PercentHumanOralAbsorption>
92.0647

> <r_qp_SAfluorine>
0

> <r_qp_SAamideO>
0

> <r_qp_PSA>
76.0073

> <i_qp_#NandO>
4

> <i_qp_RuleOfFive>
0

> <i_qp_RuleOfThree>
0

> <i_qp_#ringatoms>
17

> <i_qp_#in34>
0

> <i_qp_#in56>
12

> <i_qp_#noncon>
1

> <i_qp_#nonHatm>
21

> <r_qp_Jm>
0.0258279

> <stars>
0

> <logP>
2.50994

> <Caco>
656.475

> <MDCK>
1488.28

> <HumanOralAbsorption>
3

> <PercentHumanOralAbsorption>
92.0647

> <RuleOfFive>
0

> <base>
fda.sdf

$$$$
MYDRIACYL (tropicamide).cdx_55
                    3D
 Schrodinger Suite 2022-3.
 41 42  0  0  1  0            999 V2000
   -8.4046   -3.3486   37.9181 C   0  0  0  0  0  0
   -9.4589   -4.0074   38.5503 C   0  0  0  0  0  0
   -7.1497   -3.9529   37.8425 C   0  0  0  0  0  0
   -9.2585   -5.2706   39.1070 C   0  0  0  0  0  0
   -6.9491   -5.2161   38.3992 C   0  0  0  0  0  0
   -5.1782  -10.6519   37.4481 C   0  0  0  0  0  0
   -5.2973  -10.4107   35.0581 C   0  0  0  0  0  0
   -4.7676  -11.9590   37.2416 C   0  0  0  0  0  0
   -4.8813  -11.7286   34.9586 C   0  0  0  0  0  0
   -8.0035   -5.8749   39.0315 C   0  0  0  0  0  0
   -5.4461   -9.8696   36.3302 C   0  0  0  0  0  0
   -6.7006   -8.0388   38.8784 C   0  0  0  0  0  0
   -8.6253  -10.0110   37.1432 C   0  0  0  0  0  0
   -5.8949   -8.4465   36.4962 C   0  0  0  0  0  0
   -8.2854   -8.5616   37.0635 C   0  0  0  0  0  0
   -7.4301   -7.0930   41.1282 C   0  0  0  0  0  0
   -7.7843   -7.2511   39.6381 C   0  0  1  0  0  0
   -4.6118  -12.5196   36.0213 N   0  0  0  0  0  0
   -6.9239   -8.3142   37.5244 N   0  0  0  0  0  0
   -5.6729   -8.3906   39.4682 O   0  0  0  0  0  0
   -6.2427   -6.3202   41.2726 O   0  0  0  0  0  0
   -8.5612   -2.3656   37.4836 H   0  0  0  0  0  0
  -10.4364   -3.5376   38.6084 H   0  0  0  0  0  0
   -6.3288   -3.4406   37.3494 H   0  0  0  0  0  0
  -10.0857   -5.7765   39.5979 H   0  0  0  0  0  0
   -5.9680   -5.6790   38.3356 H   0  0  0  0  0  0
   -5.2855  -10.2598   38.4538 H   0  0  0  0  0  0
   -5.4983   -9.8258   34.1671 H   0  0  0  0  0  0
   -4.5474  -12.6110   38.0807 H   0  0  0  0  0  0
   -4.7500  -12.1974   33.9889 H   0  0  0  0  0  0
   -7.9513  -10.6055   36.5169 H   0  0  0  0  0  0
   -8.5675  -10.3692   38.1768 H   0  0  0  0  0  0
   -9.6493  -10.1725   36.7856 H   0  0  0  0  0  0
   -5.0520   -7.8062   36.7783 H   0  0  0  0  0  0
   -6.3042   -8.0519   35.5602 H   0  0  0  0  0  0
   -8.9622   -7.9740   37.6912 H   0  0  0  0  0  0
   -8.3591   -8.2018   36.0331 H   0  0  0  0  0  0
   -8.2292   -6.6161   41.7067 H   0  0  0  0  0  0
   -7.2305   -8.0683   41.5860 H   0  0  0  0  0  0
   -8.7051   -7.8445   39.5984 H   0  0  0  0  0  0
   -5.5410   -6.8000   40.8050 H   0  0  0  0  0  0
  1  2  2  0  0  0
  1  3  1  0  0  0
  1 22  1  0  0  0
  2  4  1  0  0  0
  2 23  1  0  0  0
  3  5  2  0  0  0
  3 24  1  0  0  0
  4 10  2  0  0  0
  4 25  1  0  0  0
  5 10  1  0  0  0
  5 26  1  0  0  0
  6  8  2  0  0  0
  6 11  1  0  0  0
  6 27  1  0  0  0
  7  9  1  0  0  0
  7 11  2  0  0  0
  7 28  1  0  0  0
  8 18  1  0  0  0
  8 29  1  0  0  0
  9 18  2  0  0  0
  9 30  1  0  0  0
 10 17  1  0  0  0
 11 14  1  0  0  0
 12 17  1  0  0  0
 12 19  1  0  0  0
 12 20  2  0  0  0
 13 15  1  0  0  0
 13 31  1  0  0  0
 13 32  1  0  0  0
 13 33  1  0  0  0
 14 19  1  0  0  0
 14 34  1  0  0  0
 14 35  1  0  0  0
 15 19  1  0  0  0
 15 36  1  0  0  0
 15 37  1  0  0  0
 16 17  1  0  0  0
 16 21  1  0  0  0
 16 38  1  0  0  0
 16 39  1  0  0  0
 17 40  1  0  0  0
 21 41  1  0  0  0
M  END
> <EON_Query>
60c

> <EON_ET_pb>
0.184

> <EON_ET_coul>
0.171

> <EON_ET_combo>
0.608

> <EON_ShapeTanimoto>
0.424

> <ROCS_ShapeQuery>
60c

> <ROCS_TanimotoCombo>
0.776

> <ROCS_ShapeTanimoto>
0.481

> <ROCS_ColorTanimoto>
0.295

> <ROCS_RefTversky>
0.561

> <ROCS_RefColorTversky>
0.372

> <ROCS_RefTverskyCombo>
0.933

> <ROCS_FitTversky>
0.771

> <ROCS_FitColorTversky>
0.588

> <ROCS_FitTverskyCombo>
1.359

> <ROCS_ColorScore>
-3.644

> <ROCS_Overlap>
725.405

> <ROCS_Rank>
856

> <EON_Rank>
616

> <i_qp_#stars>
0

> <i_qp_#amine>
0

> <i_qp_#amidine>
0

> <i_qp_#acid>
0

> <i_qp_#amide>
1

> <i_qp_#rotor>
7

> <i_qp_#rtvFG>
0

> <i_qp_CNS>
0

> <r_qp_mol_MW>
284.357

> <r_qp_dipole>
5.95431

> <r_qp_SASA>
542.181

> <r_qp_FOSA>
164.721

> <r_qp_FISA>
83.4201

> <r_qp_PISA>
294.04

> <r_qp_WPSA>
0

> <r_qp_volume>
956.598

> <r_qp_donorHB>
0

> <r_qp_accptHB>
5.2

> <r_qp_dip^2/V>
0.0370624

> <r_qp_ACxDN^.5/SA>
0

> <r_qp_glob>
0.865978

> <r_qp_QPpolrz>
30.4424

> <r_qp_QPlogPC16>
9.80604

> <r_qp_QPlogPoct>
12.9903

> <r_qp_QPlogPw>
8.30171

> <r_qp_QPlogPo/w>
2.14492

> <r_qp_QPlogS>
-2.12267

> <r_qp_CIQPlogS>
-2.77817

> <r_qp_QPlogHERG>
-3.72848

> <r_qp_QPPCaco>
1210.61

> <r_qp_QPlogBB>
-0.599978

> <r_qp_QPPMDCK>
823.652

> <r_qp_QPlogKp>
-1.34905

> <r_qp_IP(eV)>
9.74275

> <r_qp_EA(eV)>
0.189532

> <i_qp_#metab>
6

> <r_qp_QPlogKhsa>
-0.614915

> <i_qp_HumanOralAbsorption>
3

> <r_qp_PercentHumanOralAbsorption>
94.6845

> <r_qp_SAfluorine>
0

> <r_qp_SAamideO>
15.3045

> <r_qp_PSA>
50.6854

> <i_qp_#NandO>
4

> <i_qp_RuleOfFive>
0

> <i_qp_RuleOfThree>
0

> <i_qp_#ringatoms>
12

> <i_qp_#in34>
0

> <i_qp_#in56>
12

> <i_qp_#noncon>
0

> <i_qp_#nonHatm>
21

> <r_qp_Jm>
95.973

> <stars>
0

> <logP>
2.14492

> <Caco>
1210.61

> <MDCK>
823.652

> <HumanOralAbsorption>
3

> <PercentHumanOralAbsorption>
94.6845

> <RuleOfFive>
0

> <base>
fda.sdf

$$$$
BindingDB_50342818_mol_1_8
                    3D
 Schrodinger Suite 2022-3.
 51 53  0  0  1  0            999 V2000
   -9.0422   -5.5218   37.6180 C   0  0  0  0  0  0
   -7.3520   -4.3934   39.5157 C   0  0  0  0  0  0
   -8.4156   -6.3474   38.5650 C   0  0  0  0  0  0
   -7.5314   -5.7870   39.5075 C   0  0  0  0  0  0
   -8.8304   -4.1452   37.6251 C   0  0  0  0  0  0
   -7.9915   -3.5804   38.5788 C   0  0  0  0  0  0
   -4.5624   -6.7587   39.4765 C   0  0  0  0  0  0
   -8.6737   -7.8307   38.5189 C   0  0  0  0  0  0
   -5.3368   -6.3836   40.7213 C   0  0  0  0  0  0
   -8.3897   -8.5124   39.8460 C   0  0  0  0  0  0
   -5.8869   -8.8690   39.5600 C   0  0  0  0  0  0
   -6.8349   -6.6593   40.5421 C   0  0  2  0  0  0
   -5.1106   -7.9163   38.6547 C   0  0  2  0  0  0
   -5.4590   -9.5367   36.0703 C   0  0  0  0  0  0
   -3.2521  -10.6139   36.5525 C   0  0  0  0  0  0
   -8.7619   -3.1365   35.4732 C   0  0  0  0  0  0
   -6.9100   -1.7375   39.6226 C   0  0  0  0  0  0
   -3.9794   -8.6650   37.9539 C   0  0  0  0  0  0
   -4.4561   -9.8965   37.1674 C   0  0  0  0  0  0
   -7.0016   -8.1677   40.3215 N   0  3  1  0  0  0
   -3.5420   -6.1479   39.1602 O   0  0  0  0  0  0
   -9.4538   -3.3655   36.6993 O   0  0  0  0  0  0
   -7.7855   -2.2338   38.6118 O   0  0  0  0  0  0
   -9.7032   -5.9591   36.8725 H   0  0  0  0  0  0
   -6.7036   -3.9365   40.2634 H   0  0  0  0  0  0
   -9.7209   -7.9816   38.2494 H   0  0  0  0  0  0
   -8.0544   -8.2919   37.7487 H   0  0  0  0  0  0
   -4.9436   -6.9720   41.5550 H   0  0  0  0  0  0
   -5.1340   -5.3326   40.9404 H   0  0  0  0  0  0
   -9.1030   -8.1739   40.6153 H   0  0  0  0  0  0
   -8.4640   -9.6091   39.7676 H   0  0  0  0  0  0
   -6.3510   -9.6894   38.9953 H   0  0  0  0  0  0
   -5.2380   -9.3153   40.3277 H   0  0  0  0  0  0
   -7.3426   -6.5055   41.5307 H   0  0  0  0  0  0
   -5.7619   -7.4909   37.8877 H   0  0  0  0  0  0
   -5.0225   -8.8407   35.3460 H   0  0  0  0  0  0
   -6.3582   -9.0745   36.4885 H   0  0  0  0  0  0
   -5.7782  -10.4329   35.5273 H   0  0  0  0  0  0
   -2.7217   -9.9665   35.8458 H   0  0  0  0  0  0
   -3.5679  -11.5148   36.0158 H   0  0  0  0  0  0
   -2.5434  -10.9211   37.3289 H   0  0  0  0  0  0
   -9.3691   -2.5001   34.8248 H   0  0  0  0  0  0
   -8.5638   -4.0923   34.9816 H   0  0  0  0  0  0
   -7.8148   -2.6361   35.6876 H   0  0  0  0  0  0
   -6.8331   -0.6508   39.5376 H   0  0  0  0  0  0
   -5.9233   -2.1934   39.5073 H   0  0  0  0  0  0
   -7.3164   -1.9962   40.6032 H   0  0  0  0  0  0
   -3.4529   -7.9704   37.2901 H   0  0  0  0  0  0
   -3.2603   -8.9807   38.7183 H   0  0  0  0  0  0
   -4.9431  -10.5925   37.8622 H   0  0  0  0  0  0
   -6.9517   -8.5554   41.2419 H   0  0  0  0  0  0
  1  3  2  0  0  0
  1  5  1  0  0  0
  1 24  1  0  0  0
  2  4  2  0  0  0
  2  6  1  0  0  0
  2 25  1  0  0  0
  3  4  1  0  0  0
  3  8  1  0  0  0
  4 12  1  0  0  0
  5  6  2  0  0  0
  5 22  1  0  0  0
  6 23  1  0  0  0
  7  9  1  0  0  0
  7 13  1  0  0  0
  7 21  2  0  0  0
  8 10  1  0  0  0
  8 26  1  0  0  0
  8 27  1  0  0  0
  9 12  1  0  0  0
  9 28  1  0  0  0
  9 29  1  0  0  0
 10 20  1  0  0  0
 10 30  1  0  0  0
 10 31  1  0  0  0
 11 13  1  0  0  0
 11 20  1  0  0  0
 11 32  1  0  0  0
 11 33  1  0  0  0
 12 20  1  0  0  0
 12 34  1  0  0  0
 13 18  1  0  0  0
 13 35  1  0  0  0
 14 19  1  0  0  0
 14 36  1  0  0  0
 14 37  1  0  0  0
 14 38  1  0  0  0
 15 19  1  0  0  0
 15 39  1  0  0  0
 15 40  1  0  0  0
 15 41  1  0  0  0
 16 22  1  0  0  0
 16 42  1  0  0  0
 16 43  1  0  0  0
 16 44  1  0  0  0
 17 23  1  0  0  0
 17 45  1  0  0  0
 17 46  1  0  0  0
 17 47  1  0  0  0
 18 19  1  0  0  0
 18 48  1  0  0  0
 18 49  1  0  0  0
 19 50  1  0  0  0
 20 51  1  0  0  0
M  CHG  1  20   1
M  END
> <EON_Query>
60c

> <EON_ET_pb>
0.065

> <EON_ET_coul>
0.019

> <EON_ET_combo>
0.607

> <EON_ShapeTanimoto>
0.542

> <ROCS_ShapeQuery>
60c

> <ROCS_TanimotoCombo>
0.722

> <ROCS_ShapeTanimoto>
0.536

> <ROCS_ColorTanimoto>
0.186

> <ROCS_RefTversky>
0.625

> <ROCS_RefColorTversky>
0.3

> <ROCS_RefTverskyCombo>
0.924

> <ROCS_FitTversky>
0.79

> <ROCS_FitColorTversky>
0.329

> <ROCS_FitTverskyCombo>
1.119

> <ROCS_ColorScore>
-2.983

> <ROCS_Overlap>
810.701

> <ROCS_Rank>
1489

> <EON_Rank>
625

> <i_qp_#stars>
0

> <i_qp_#amine>
1

> <i_qp_#amidine>
0

> <i_qp_#acid>
0

> <i_qp_#amide>
0

> <i_qp_#rotor>
4

> <i_qp_#rtvFG>
1

> <i_qp_CNS>
1

> <r_qp_mol_MW>
317.427

> <r_qp_dipole>
2.75463

> <r_qp_SASA>
577.839

> <r_qp_FOSA>
493.11

> <r_qp_FISA>
42.9687

> <r_qp_PISA>
41.7597

> <r_qp_WPSA>
0

> <r_qp_volume>
1054.68

> <r_qp_donorHB>
0

> <r_qp_accptHB>
5.5

> <r_qp_dip^2/V>
0.00719463

> <r_qp_ACxDN^.5/SA>
0

> <r_qp_glob>
0.86717

> <r_qp_QPpolrz>
33.8845

> <r_qp_QPlogPC16>
8.67201

> <r_qp_QPlogPoct>
13.4732

> <r_qp_QPlogPw>
6.22115

> <r_qp_QPlogPo/w>
2.72182

> <r_qp_QPlogS>
-2.41674

> <r_qp_CIQPlogS>
-2.66522

> <r_qp_QPlogHERG>
-4.60663

> <r_qp_QPPCaco>
966.78

> <r_qp_QPlogBB>
0.339989

> <r_qp_QPPMDCK>
527.68

> <r_qp_QPlogKp>
-3.84287

> <r_qp_IP(eV)>
9.04515

> <r_qp_EA(eV)>
0.0705385

> <i_qp_#metab>
6

> <r_qp_QPlogKhsa>
0.0386333

> <i_qp_HumanOralAbsorption>
3

> <r_qp_PercentHumanOralAbsorption>
96.3142

> <r_qp_SAfluorine>
0

> <r_qp_SAamideO>
0

> <r_qp_PSA>
47.5106

> <i_qp_#NandO>
4

> <i_qp_RuleOfFive>
0

> <i_qp_RuleOfThree>
0

> <i_qp_#ringatoms>
14

> <i_qp_#in34>
0

> <i_qp_#in56>
14

> <i_qp_#noncon>
6

> <i_qp_#nonHatm>
23

> <r_qp_Jm>
0.174597

> <stars>
0

> <logP>
2.72182

> <Caco>
966.78

> <MDCK>
527.68

> <HumanOralAbsorption>
3

> <PercentHumanOralAbsorption>
96.3142

> <RuleOfFive>
0

> <base>
fda.sdf

$$$$
S4281 Tasimelteon.cdx_71
                    3D
 Schrodinger Suite 2022-3.
 37 39  0  0  1  0            999 V2000
   -5.9205  -10.9232   39.5048 C   0  0  0  0  0  0
   -6.1047   -9.5549   39.2439 C   0  0  0  0  0  0
   -5.4466  -11.7790   38.5088 C   0  0  0  0  0  0
   -5.8198   -9.0254   37.9824 C   0  0  0  0  0  0
   -5.3412   -9.8820   37.0084 C   0  0  0  0  0  0
   -5.1597  -11.2312   37.2738 C   0  0  0  0  0  0
   -8.8187   -3.4917   37.8558 C   0  0  0  0  0  0
   -5.0205   -9.6136   35.5898 C   0  0  0  0  0  0
   -5.7865   -6.5278   38.7808 C   0  0  0  0  0  0
   -4.2893  -10.9154   35.2584 C   0  0  0  0  0  0
   -6.0424   -7.5576   37.7017 C   0  0  2  0  0  0
   -7.1946   -6.8278   38.3605 C   0  0  2  0  0  0
   -7.4174   -1.9005   39.2279 C   0  0  0  0  0  0
   -8.8185   -2.3516   38.8575 C   0  0  0  0  0  0
   -7.9784   -5.8213   37.5911 C   0  0  0  0  0  0
   -8.1298   -4.6015   38.3358 N   0  0  0  0  0  0
   -9.3688   -3.4233   36.7601 O   0  0  0  0  0  0
   -4.6968  -11.9411   36.1951 O   0  0  0  0  0  0
   -6.1511  -11.3172   40.4909 H   0  0  0  0  0  0
   -6.4798   -8.9122   40.0369 H   0  0  0  0  0  0
   -5.3079  -12.8362   38.7052 H   0  0  0  0  0  0
   -5.9398   -9.5189   35.0028 H   0  0  0  0  0  0
   -4.3826   -8.7405   35.4320 H   0  0  0  0  0  0
   -5.4729   -6.8642   39.7620 H   0  0  0  0  0  0
   -5.3441   -5.5871   38.4755 H   0  0  0  0  0  0
   -4.5062  -11.2502   34.2386 H   0  0  0  0  0  0
   -3.2024  -10.7924   35.3509 H   0  0  0  0  0  0
   -5.7871   -7.2538   36.6862 H   0  0  0  0  0  0
   -7.8193   -7.3689   39.0629 H   0  0  0  0  0  0
   -6.8410   -2.7239   39.6627 H   0  0  0  0  0  0
   -6.8857   -1.5415   38.3415 H   0  0  0  0  0  0
   -7.4469   -1.0876   39.9610 H   0  0  0  0  0  0
   -9.3729   -1.5105   38.4256 H   0  0  0  0  0  0
   -9.3487   -2.6803   39.7585 H   0  0  0  0  0  0
   -8.9799   -6.2025   37.3687 H   0  0  0  0  0  0
   -7.4781   -5.5762   36.6493 H   0  0  0  0  0  0
   -7.7109   -4.5464   39.2636 H   0  0  0  0  0  0
  1  2  2  0  0  0
  1  3  1  0  0  0
  1 19  1  0  0  0
  2  4  1  0  0  0
  2 20  1  0  0  0
  3  6  2  0  0  0
  3 21  1  0  0  0
  4  5  2  0  0  0
  4 11  1  0  0  0
  5  6  1  0  0  0
  5  8  1  0  0  0
  6 18  1  0  0  0
  7 14  1  0  0  0
  7 16  1  0  0  0
  7 17  2  0  0  0
  8 10  1  0  0  0
  8 22  1  0  0  0
  8 23  1  0  0  0
  9 11  1  0  0  0
  9 12  1  0  0  0
  9 24  1  0  0  0
  9 25  1  0  0  0
 10 18  1  0  0  0
 10 26  1  0  0  0
 10 27  1  0  0  0
 11 12  1  0  0  0
 11 28  1  0  0  0
 12 15  1  0  0  0
 12 29  1  0  0  0
 13 14  1  0  0  0
 13 30  1  0  0  0
 13 31  1  0  0  0
 13 32  1  0  0  0
 14 33  1  0  0  0
 14 34  1  0  0  0
 15 16  1  0  0  0
 15 35  1  0  0  0
 15 36  1  0  0  0
 16 37  1  0  0  0
M  END
> <EON_Query>
60c

> <EON_ET_pb>
0.047

> <EON_ET_coul>
0.042

> <EON_ET_combo>
0.606

> <EON_ShapeTanimoto>
0.56

> <ROCS_ShapeQuery>
60c

> <ROCS_TanimotoCombo>
0.693

> <ROCS_ShapeTanimoto>
0.541

> <ROCS_ColorTanimoto>
0.151

> <ROCS_RefTversky>
0.575

> <ROCS_RefColorTversky>
0.215

> <ROCS_RefTverskyCombo>
0.79

> <ROCS_FitTversky>
0.901

> <ROCS_FitColorTversky>
0.339

> <ROCS_FitTverskyCombo>
1.24

> <ROCS_ColorScore>
-2.107

> <ROCS_Overlap>
740.633

> <ROCS_Rank>
1879

> <EON_Rank>
642

> <i_qp_#stars>
0

> <i_qp_#amine>
0

> <i_qp_#amidine>
0

> <i_qp_#acid>
0

> <i_qp_#amide>
1

> <i_qp_#rotor>
3

> <i_qp_#rtvFG>
0

> <i_qp_CNS>
0

> <r_qp_mol_MW>
245.321

> <r_qp_dipole>
5.26297

> <r_qp_SASA>
516.911

> <r_qp_FOSA>
340.387

> <r_qp_FISA>
51.9999

> <r_qp_PISA>
124.523

> <r_qp_WPSA>
0

> <r_qp_volume>
878.904

> <r_qp_donorHB>
1

> <r_qp_accptHB>
3.25

> <r_qp_dip^2/V>
0.0315152

> <r_qp_ACxDN^.5/SA>
0.00628735

> <r_qp_glob>
0.858441

> <r_qp_QPpolrz>
28.2826

> <r_qp_QPlogPC16>
7.82335

> <r_qp_QPlogPoct>
12.2204

> <r_qp_QPlogPw>
8.95254

> <r_qp_QPlogPo/w>
2.58565

> <r_qp_QPlogS>
-2.804

> <r_qp_CIQPlogS>
-2.46891

> <r_qp_QPlogHERG>
-3.04202

> <r_qp_QPPCaco>
1596.83

> <r_qp_QPlogBB>
-0.0877404

> <r_qp_QPPMDCK>
1729.02

> <r_qp_QPlogKp>
-1.75117

> <r_qp_IP(eV)>
9.16059

> <r_qp_EA(eV)>
-0.055336

> <i_qp_#metab>
4

> <r_qp_QPlogKhsa>
-0.0610892

> <i_qp_HumanOralAbsorption>
3

> <r_qp_PercentHumanOralAbsorption>
100

> <r_qp_SAfluorine>
0

> <r_qp_SAamideO>
37.629

> <r_qp_PSA>
47.7983

> <i_qp_#NandO>
3

> <i_qp_RuleOfFive>
0

> <i_qp_RuleOfThree>
0

> <i_qp_#ringatoms>
12

> <i_qp_#in34>
3

> <i_qp_#in56>
9

> <i_qp_#noncon>
5

> <i_qp_#nonHatm>
18

> <r_qp_Jm>
6.8323

> <stars>
0

> <logP>
2.58565

> <Caco>
1596.83

> <MDCK>
1729.02

> <HumanOralAbsorption>
3

> <PercentHumanOralAbsorption>
100.0

> <RuleOfFive>
0

> <base>
fda.sdf

$$$$
Molecule_8
                    3D
 Schrodinger Suite 2022-3.
 47 48  0  0  1  0            999 V2000
   -8.6497   -3.2285   38.3241 C   0  0  0  0  0  0
   -7.8244   -3.6323   39.3735 C   0  0  0  0  0  0
   -9.0538   -4.1517   37.3596 C   0  0  0  0  0  0
   -7.4029   -4.9593   39.4585 C   0  0  0  0  0  0
   -8.6324   -5.4787   37.4445 C   0  0  0  0  0  0
   -7.8070   -5.8825   38.4940 C   0  0  0  0  0  0
   -7.6124   -8.1254   39.6147 C   0  0  0  0  0  0
   -6.3374  -10.1724   41.6907 C   0  0  0  0  0  0
   -4.8689  -10.0089   41.3230 C   0  0  0  0  0  0
   -7.2052  -10.4512   40.4658 C   0  0  0  0  0  0
   -4.6722   -8.9672   40.2331 C   0  0  0  0  0  0
   -6.9905   -9.4577   39.3250 C   0  0  2  0  0  0
   -6.5189   -5.3617   40.5944 C   0  0  0  0  0  0
   -9.0825   -6.4438   36.3961 C   0  0  0  0  0  0
   -5.0117  -11.4816   35.9235 C   0  0  0  0  0  0
   -5.5128  -10.3340   36.7851 C   0  0  0  0  0  0
   -4.9521  -10.4197   38.1957 C   0  0  0  0  0  0
   -7.3792   -7.2287   38.5798 N   0  0  0  0  0  0
   -5.5141   -9.2885   39.0202 N   0  3  2  0  0  0
   -8.2344   -7.9354   40.6548 O   0  0  0  0  0  0
   -8.9781   -2.1953   38.2579 H   0  0  0  0  0  0
   -7.5146   -2.9053   40.1197 H   0  0  0  0  0  0
   -9.6973   -3.8269   36.5463 H   0  0  0  0  0  0
   -6.4469  -10.9976   42.4103 H   0  0  0  0  0  0
   -6.6963   -9.2658   42.1985 H   0  0  0  0  0  0
   -4.2978   -9.7207   42.2158 H   0  0  0  0  0  0
   -4.4650  -10.9717   40.9871 H   0  0  0  0  0  0
   -7.0051  -11.4753   40.1088 H   0  0  0  0  0  0
   -8.2660  -10.4517   40.7726 H   0  0  0  0  0  0
   -4.9791   -7.9750   40.5948 H   0  0  0  0  0  0
   -3.6229   -8.9167   39.9046 H   0  0  0  0  0  0
   -7.4490   -9.8445   38.3750 H   0  0  0  0  0  0
   -7.1239   -5.6907   41.4469 H   0  0  0  0  0  0
   -5.8489   -6.1794   40.3035 H   0  0  0  0  0  0
   -5.8845   -4.5270   40.9163 H   0  0  0  0  0  0
   -8.3680   -6.4615   35.5656 H   0  0  0  0  0  0
   -9.1710   -7.4579   36.8040 H   0  0  0  0  0  0
  -10.0693   -6.1695   36.0038 H   0  0  0  0  0  0
   -3.9179  -11.4758   35.8826 H   0  0  0  0  0  0
   -5.3313  -12.4462   36.3306 H   0  0  0  0  0  0
   -5.3904  -11.3980   34.8998 H   0  0  0  0  0  0
   -6.6087  -10.3576   36.8130 H   0  0  0  0  0  0
   -5.2230   -9.3835   36.3215 H   0  0  0  0  0  0
   -5.2391  -11.3496   38.6952 H   0  0  0  0  0  0
   -3.8635  -10.3138   38.2117 H   0  0  0  0  0  0
   -6.8402   -7.5663   37.7850 H   0  0  0  0  0  0
   -5.4562   -8.4794   38.4354 H   0  0  0  0  0  0
  1  2  2  0  0  0
  1  3  1  0  0  0
  1 21  1  0  0  0
  2  4  1  0  0  0
  2 22  1  0  0  0
  3  5  2  0  0  0
  3 23  1  0  0  0
  4  6  2  0  0  0
  4 13  1  0  0  0
  5  6  1  0  0  0
  5 14  1  0  0  0
  6 18  1  0  0  0
  7 12  1  0  0  0
  7 18  1  0  0  0
  7 20  2  0  0  0
  8  9  1  0  0  0
  8 10  1  0  0  0
  8 24  1  0  0  0
  8 25  1  0  0  0
  9 11  1  0  0  0
  9 26  1  0  0  0
  9 27  1  0  0  0
 10 12  1  0  0  0
 10 28  1  0  0  0
 10 29  1  0  0  0
 11 19  1  0  0  0
 11 30  1  0  0  0
 11 31  1  0  0  0
 12 19  1  0  0  0
 12 32  1  0  0  0
 13 33  1  0  0  0
 13 34  1  0  0  0
 13 35  1  0  0  0
 14 36  1  0  0  0
 14 37  1  0  0  0
 14 38  1  0  0  0
 15 16  1  0  0  0
 15 39  1  0  0  0
 15 40  1  0  0  0
 15 41  1  0  0  0
 16 17  1  0  0  0
 16 42  1  0  0  0
 16 43  1  0  0  0
 17 19  1  0  0  0
 17 44  1  0  0  0
 17 45  1  0  0  0
 18 46  1  0  0  0
 19 47  1  0  0  0
M  CHG  1  19   1
M  END
> <EON_Query>
60c

> <EON_ET_pb>
0.054

> <EON_ET_coul>
0.041

> <EON_ET_combo>
0.606

> <EON_ShapeTanimoto>
0.552

> <ROCS_ShapeQuery>
60c

> <ROCS_TanimotoCombo>
0.705

> <ROCS_ShapeTanimoto>
0.6

> <ROCS_ColorTanimoto>
0.105

> <ROCS_RefTversky>
0.632

> <ROCS_RefColorTversky>
0.164

> <ROCS_RefTverskyCombo>
0.796

> <ROCS_FitTversky>
0.923

> <ROCS_FitColorTversky>
0.227

> <ROCS_FitTverskyCombo>
1.15

> <ROCS_ColorScore>
-1.62

> <ROCS_Overlap>
815.193

> <ROCS_Rank>
1695

> <EON_Rank>
643

> <i_qp_#stars>
0

> <i_qp_#amine>
1

> <i_qp_#amidine>
0

> <i_qp_#acid>
0

> <i_qp_#amide>
0

> <i_qp_#rotor>
4

> <i_qp_#rtvFG>
0

> <i_qp_CNS>
2

> <r_qp_mol_MW>
274.405

> <r_qp_dipole>
4.96223

> <r_qp_SASA>
554.461

> <r_qp_FOSA>
403.395

> <r_qp_FISA>
23.3159

> <r_qp_PISA>
127.75

> <r_qp_WPSA>
0

> <r_qp_volume>
989.608

> <r_qp_donorHB>
1

> <r_qp_accptHB>
4.5

> <r_qp_dip^2/V>
0.0248823

> <r_qp_ACxDN^.5/SA>
0.00811599

> <r_qp_glob>
0.866169

> <r_qp_QPpolrz>
32.1017

> <r_qp_QPlogPC16>
8.75289

> <r_qp_QPlogPoct>
14.0231

> <r_qp_QPlogPw>
7.09577

> <r_qp_QPlogPo/w>
3.08116

> <r_qp_QPlogS>
-2.90701

> <r_qp_CIQPlogS>
-2.35669

> <r_qp_QPlogHERG>
-5.03291

> <r_qp_QPPCaco>
1484.89

> <r_qp_QPlogBB>
0.51375

> <r_qp_QPPMDCK>
839.097

> <r_qp_QPlogKp>
-3.17775

> <r_qp_IP(eV)>
8.94509

> <r_qp_EA(eV)>
-0.229841

> <i_qp_#metab>
5

> <r_qp_QPlogKhsa>
0.284496

> <i_qp_HumanOralAbsorption>
3

> <r_qp_PercentHumanOralAbsorption>
100

> <r_qp_SAfluorine>
0

> <r_qp_SAamideO>
0

> <r_qp_PSA>
30.4034

> <i_qp_#NandO>
3

> <i_qp_RuleOfFive>
0

> <i_qp_RuleOfThree>
0

> <i_qp_#ringatoms>
12

> <i_qp_#in34>
0

> <i_qp_#in56>
12

> <i_qp_#noncon>
5

> <i_qp_#nonHatm>
20

> <r_qp_Jm>
0.225753

> <stars>
0

> <logP>
3.08116

> <Caco>
1484.89

> <MDCK>
839.097

> <HumanOralAbsorption>
3

> <PercentHumanOralAbsorption>
100.0

> <RuleOfFive>
0

> <base>
fda.sdf

$$$$
S5504 Ropivacaine.cdx_8
                    3D
 Schrodinger Suite 2022-3.
 47 48  0  0  1  0            999 V2000
   -8.6497   -3.2285   38.3241 C   0  0  0  0  0  0
   -7.8244   -3.6323   39.3735 C   0  0  0  0  0  0
   -9.0538   -4.1517   37.3596 C   0  0  0  0  0  0
   -7.4029   -4.9593   39.4585 C   0  0  0  0  0  0
   -8.6324   -5.4787   37.4445 C   0  0  0  0  0  0
   -7.8070   -5.8825   38.4940 C   0  0  0  0  0  0
   -7.6124   -8.1254   39.6147 C   0  0  0  0  0  0
   -6.3374  -10.1724   41.6907 C   0  0  0  0  0  0
   -4.8689  -10.0089   41.3230 C   0  0  0  0  0  0
   -7.2052  -10.4512   40.4658 C   0  0  0  0  0  0
   -4.6722   -8.9672   40.2331 C   0  0  0  0  0  0
   -6.9905   -9.4577   39.3250 C   0  0  2  0  0  0
   -6.5189   -5.3617   40.5944 C   0  0  0  0  0  0
   -9.0825   -6.4438   36.3961 C   0  0  0  0  0  0
   -5.0117  -11.4816   35.9235 C   0  0  0  0  0  0
   -5.5128  -10.3340   36.7851 C   0  0  0  0  0  0
   -4.9521  -10.4197   38.1957 C   0  0  0  0  0  0
   -7.3792   -7.2287   38.5798 N   0  0  0  0  0  0
   -5.5141   -9.2885   39.0202 N   0  3  2  0  0  0
   -8.2344   -7.9354   40.6548 O   0  0  0  0  0  0
   -8.9781   -2.1953   38.2579 H   0  0  0  0  0  0
   -7.5146   -2.9053   40.1197 H   0  0  0  0  0  0
   -9.6973   -3.8269   36.5463 H   0  0  0  0  0  0
   -6.4469  -10.9976   42.4103 H   0  0  0  0  0  0
   -6.6963   -9.2658   42.1985 H   0  0  0  0  0  0
   -4.2978   -9.7207   42.2158 H   0  0  0  0  0  0
   -4.4650  -10.9717   40.9871 H   0  0  0  0  0  0
   -7.0051  -11.4753   40.1088 H   0  0  0  0  0  0
   -8.2660  -10.4517   40.7726 H   0  0  0  0  0  0
   -4.9791   -7.9750   40.5948 H   0  0  0  0  0  0
   -3.6229   -8.9167   39.9046 H   0  0  0  0  0  0
   -7.4490   -9.8445   38.3750 H   0  0  0  0  0  0
   -7.1239   -5.6907   41.4469 H   0  0  0  0  0  0
   -5.8489   -6.1794   40.3035 H   0  0  0  0  0  0
   -5.8845   -4.5270   40.9163 H   0  0  0  0  0  0
   -8.3680   -6.4615   35.5656 H   0  0  0  0  0  0
   -9.1710   -7.4579   36.8040 H   0  0  0  0  0  0
  -10.0693   -6.1695   36.0038 H   0  0  0  0  0  0
   -3.9179  -11.4758   35.8826 H   0  0  0  0  0  0
   -5.3313  -12.4462   36.3306 H   0  0  0  0  0  0
   -5.3904  -11.3980   34.8998 H   0  0  0  0  0  0
   -6.6087  -10.3576   36.8130 H   0  0  0  0  0  0
   -5.2230   -9.3835   36.3215 H   0  0  0  0  0  0
   -5.2391  -11.3496   38.6952 H   0  0  0  0  0  0
   -3.8635  -10.3138   38.2117 H   0  0  0  0  0  0
   -6.8402   -7.5663   37.7850 H   0  0  0  0  0  0
   -5.4562   -8.4794   38.4354 H   0  0  0  0  0  0
  1  2  2  0  0  0
  1  3  1  0  0  0
  1 21  1  0  0  0
  2  4  1  0  0  0
  2 22  1  0  0  0
  3  5  2  0  0  0
  3 23  1  0  0  0
  4  6  2  0  0  0
  4 13  1  0  0  0
  5  6  1  0  0  0
  5 14  1  0  0  0
  6 18  1  0  0  0
  7 12  1  0  0  0
  7 18  1  0  0  0
  7 20  2  0  0  0
  8  9  1  0  0  0
  8 10  1  0  0  0
  8 24  1  0  0  0
  8 25  1  0  0  0
  9 11  1  0  0  0
  9 26  1  0  0  0
  9 27  1  0  0  0
 10 12  1  0  0  0
 10 28  1  0  0  0
 10 29  1  0  0  0
 11 19  1  0  0  0
 11 30  1  0  0  0
 11 31  1  0  0  0
 12 19  1  0  0  0
 12 32  1  0  0  0
 13 33  1  0  0  0
 13 34  1  0  0  0
 13 35  1  0  0  0
 14 36  1  0  0  0
 14 37  1  0  0  0
 14 38  1  0  0  0
 15 16  1  0  0  0
 15 39  1  0  0  0
 15 40  1  0  0  0
 15 41  1  0  0  0
 16 17  1  0  0  0
 16 42  1  0  0  0
 16 43  1  0  0  0
 17 19  1  0  0  0
 17 44  1  0  0  0
 17 45  1  0  0  0
 18 46  1  0  0  0
 19 47  1  0  0  0
M  CHG  1  19   1
M  END
> <EON_Query>
60c

> <EON_ET_pb>
0.054

> <EON_ET_coul>
0.041

> <EON_ET_combo>
0.606

> <EON_ShapeTanimoto>
0.552

> <ROCS_ShapeQuery>
60c

> <ROCS_TanimotoCombo>
0.705

> <ROCS_ShapeTanimoto>
0.6

> <ROCS_ColorTanimoto>
0.105

> <ROCS_RefTversky>
0.632

> <ROCS_RefColorTversky>
0.164

> <ROCS_RefTverskyCombo>
0.796

> <ROCS_FitTversky>
0.923

> <ROCS_FitColorTversky>
0.227

> <ROCS_FitTverskyCombo>
1.15

> <ROCS_ColorScore>
-1.62

> <ROCS_Overlap>
815.193

> <ROCS_Rank>
1694

> <EON_Rank>
644

> <i_qp_#stars>
0

> <i_qp_#amine>
1

> <i_qp_#amidine>
0

> <i_qp_#acid>
0

> <i_qp_#amide>
0

> <i_qp_#rotor>
4

> <i_qp_#rtvFG>
0

> <i_qp_CNS>
2

> <r_qp_mol_MW>
274.405

> <r_qp_dipole>
4.96223

> <r_qp_SASA>
554.461

> <r_qp_FOSA>
403.395

> <r_qp_FISA>
23.3159

> <r_qp_PISA>
127.75

> <r_qp_WPSA>
0

> <r_qp_volume>
989.608

> <r_qp_donorHB>
1

> <r_qp_accptHB>
4.5

> <r_qp_dip^2/V>
0.0248823

> <r_qp_ACxDN^.5/SA>
0.00811599

> <r_qp_glob>
0.866169

> <r_qp_QPpolrz>
32.1017

> <r_qp_QPlogPC16>
8.75289

> <r_qp_QPlogPoct>
14.0231

> <r_qp_QPlogPw>
7.09577

> <r_qp_QPlogPo/w>
3.08116

> <r_qp_QPlogS>
-2.90701

> <r_qp_CIQPlogS>
-2.35669

> <r_qp_QPlogHERG>
-5.03291

> <r_qp_QPPCaco>
1484.89

> <r_qp_QPlogBB>
0.51375

> <r_qp_QPPMDCK>
839.097

> <r_qp_QPlogKp>
-3.17775

> <r_qp_IP(eV)>
8.94509

> <r_qp_EA(eV)>
-0.229841

> <i_qp_#metab>
5

> <r_qp_QPlogKhsa>
0.284496

> <i_qp_HumanOralAbsorption>
3

> <r_qp_PercentHumanOralAbsorption>
100

> <r_qp_SAfluorine>
0

> <r_qp_SAamideO>
0

> <r_qp_PSA>
30.4034

> <i_qp_#NandO>
3

> <i_qp_RuleOfFive>
0

> <i_qp_RuleOfThree>
0

> <i_qp_#ringatoms>
12

> <i_qp_#in34>
0

> <i_qp_#in56>
12

> <i_qp_#noncon>
5

> <i_qp_#nonHatm>
20

> <r_qp_Jm>
0.225753

> <stars>
0

> <logP>
3.08116

> <Caco>
1484.89

> <MDCK>
839.097

> <HumanOralAbsorption>
3

> <PercentHumanOralAbsorption>
100.0

> <RuleOfFive>
0

> <base>
fda.sdf

$$$$
ropivacaine hydrochloride.cdx_8
                    3D
 Schrodinger Suite 2022-3.
 47 48  0  0  1  0            999 V2000
   -8.6497   -3.2285   38.3241 C   0  0  0  0  0  0
   -7.8244   -3.6323   39.3735 C   0  0  0  0  0  0
   -9.0538   -4.1517   37.3596 C   0  0  0  0  0  0
   -7.4029   -4.9593   39.4585 C   0  0  0  0  0  0
   -8.6324   -5.4787   37.4445 C   0  0  0  0  0  0
   -7.8070   -5.8825   38.4940 C   0  0  0  0  0  0
   -7.6124   -8.1254   39.6147 C   0  0  0  0  0  0
   -6.3374  -10.1724   41.6907 C   0  0  0  0  0  0
   -4.8689  -10.0089   41.3230 C   0  0  0  0  0  0
   -7.2052  -10.4512   40.4658 C   0  0  0  0  0  0
   -4.6722   -8.9672   40.2331 C   0  0  0  0  0  0
   -6.9905   -9.4577   39.3250 C   0  0  2  0  0  0
   -6.5189   -5.3617   40.5944 C   0  0  0  0  0  0
   -9.0825   -6.4438   36.3961 C   0  0  0  0  0  0
   -5.0117  -11.4816   35.9235 C   0  0  0  0  0  0
   -5.5128  -10.3340   36.7851 C   0  0  0  0  0  0
   -4.9521  -10.4197   38.1957 C   0  0  0  0  0  0
   -7.3792   -7.2287   38.5798 N   0  0  0  0  0  0
   -5.5141   -9.2885   39.0202 N   0  3  2  0  0  0
   -8.2344   -7.9354   40.6548 O   0  0  0  0  0  0
   -8.9781   -2.1953   38.2579 H   0  0  0  0  0  0
   -7.5146   -2.9053   40.1197 H   0  0  0  0  0  0
   -9.6973   -3.8269   36.5463 H   0  0  0  0  0  0
   -6.4469  -10.9976   42.4103 H   0  0  0  0  0  0
   -6.6963   -9.2658   42.1985 H   0  0  0  0  0  0
   -4.2978   -9.7207   42.2158 H   0  0  0  0  0  0
   -4.4650  -10.9717   40.9871 H   0  0  0  0  0  0
   -7.0051  -11.4753   40.1088 H   0  0  0  0  0  0
   -8.2660  -10.4517   40.7726 H   0  0  0  0  0  0
   -4.9791   -7.9750   40.5948 H   0  0  0  0  0  0
   -3.6229   -8.9167   39.9046 H   0  0  0  0  0  0
   -7.4490   -9.8445   38.3750 H   0  0  0  0  0  0
   -7.1239   -5.6907   41.4469 H   0  0  0  0  0  0
   -5.8489   -6.1794   40.3035 H   0  0  0  0  0  0
   -5.8845   -4.5270   40.9163 H   0  0  0  0  0  0
   -8.3680   -6.4615   35.5656 H   0  0  0  0  0  0
   -9.1710   -7.4579   36.8040 H   0  0  0  0  0  0
  -10.0693   -6.1695   36.0038 H   0  0  0  0  0  0
   -3.9179  -11.4758   35.8826 H   0  0  0  0  0  0
   -5.3313  -12.4462   36.3306 H   0  0  0  0  0  0
   -5.3904  -11.3980   34.8998 H   0  0  0  0  0  0
   -6.6087  -10.3576   36.8130 H   0  0  0  0  0  0
   -5.2230   -9.3835   36.3215 H   0  0  0  0  0  0
   -5.2391  -11.3496   38.6952 H   0  0  0  0  0  0
   -3.8635  -10.3138   38.2117 H   0  0  0  0  0  0
   -6.8402   -7.5663   37.7850 H   0  0  0  0  0  0
   -5.4562   -8.4794   38.4354 H   0  0  0  0  0  0
  1  2  2  0  0  0
  1  3  1  0  0  0
  1 21  1  0  0  0
  2  4  1  0  0  0
  2 22  1  0  0  0
  3  5  2  0  0  0
  3 23  1  0  0  0
  4  6  2  0  0  0
  4 13  1  0  0  0
  5  6  1  0  0  0
  5 14  1  0  0  0
  6 18  1  0  0  0
  7 12  1  0  0  0
  7 18  1  0  0  0
  7 20  2  0  0  0
  8  9  1  0  0  0
  8 10  1  0  0  0
  8 24  1  0  0  0
  8 25  1  0  0  0
  9 11  1  0  0  0
  9 26  1  0  0  0
  9 27  1  0  0  0
 10 12  1  0  0  0
 10 28  1  0  0  0
 10 29  1  0  0  0
 11 19  1  0  0  0
 11 30  1  0  0  0
 11 31  1  0  0  0
 12 19  1  0  0  0
 12 32  1  0  0  0
 13 33  1  0  0  0
 13 34  1  0  0  0
 13 35  1  0  0  0
 14 36  1  0  0  0
 14 37  1  0  0  0
 14 38  1  0  0  0
 15 16  1  0  0  0
 15 39  1  0  0  0
 15 40  1  0  0  0
 15 41  1  0  0  0
 16 17  1  0  0  0
 16 42  1  0  0  0
 16 43  1  0  0  0
 17 19  1  0  0  0
 17 44  1  0  0  0
 17 45  1  0  0  0
 18 46  1  0  0  0
 19 47  1  0  0  0
M  CHG  1  19   1
M  END
> <EON_Query>
60c

> <EON_ET_pb>
0.054

> <EON_ET_coul>
0.041

> <EON_ET_combo>
0.606

> <EON_ShapeTanimoto>
0.552

> <ROCS_ShapeQuery>
60c

> <ROCS_TanimotoCombo>
0.705

> <ROCS_ShapeTanimoto>
0.6

> <ROCS_ColorTanimoto>
0.105

> <ROCS_RefTversky>
0.632

> <ROCS_RefColorTversky>
0.164

> <ROCS_RefTverskyCombo>
0.796

> <ROCS_FitTversky>
0.923

> <ROCS_FitColorTversky>
0.227

> <ROCS_FitTverskyCombo>
1.15

> <ROCS_ColorScore>
-1.62

> <ROCS_Overlap>
815.193

> <ROCS_Rank>
1693

> <EON_Rank>
645

> <i_qp_#stars>
0

> <i_qp_#amine>
1

> <i_qp_#amidine>
0

> <i_qp_#acid>
0

> <i_qp_#amide>
0

> <i_qp_#rotor>
4

> <i_qp_#rtvFG>
0

> <i_qp_CNS>
2

> <r_qp_mol_MW>
274.405

> <r_qp_dipole>
4.96223

> <r_qp_SASA>
554.461

> <r_qp_FOSA>
403.395

> <r_qp_FISA>
23.3159

> <r_qp_PISA>
127.75

> <r_qp_WPSA>
0

> <r_qp_volume>
989.608

> <r_qp_donorHB>
1

> <r_qp_accptHB>
4.5

> <r_qp_dip^2/V>
0.0248823

> <r_qp_ACxDN^.5/SA>
0.00811599

> <r_qp_glob>
0.866169

> <r_qp_QPpolrz>
32.1017

> <r_qp_QPlogPC16>
8.75289

> <r_qp_QPlogPoct>
14.0231

> <r_qp_QPlogPw>
7.09577

> <r_qp_QPlogPo/w>
3.08116

> <r_qp_QPlogS>
-2.90701

> <r_qp_CIQPlogS>
-2.35669

> <r_qp_QPlogHERG>
-5.03291

> <r_qp_QPPCaco>
1484.89

> <r_qp_QPlogBB>
0.51375

> <r_qp_QPPMDCK>
839.097

> <r_qp_QPlogKp>
-3.17775

> <r_qp_IP(eV)>
8.94509

> <r_qp_EA(eV)>
-0.229841

> <i_qp_#metab>
5

> <r_qp_QPlogKhsa>
0.284496

> <i_qp_HumanOralAbsorption>
3

> <r_qp_PercentHumanOralAbsorption>
100

> <r_qp_SAfluorine>
0

> <r_qp_SAamideO>
0

> <r_qp_PSA>
30.4034

> <i_qp_#NandO>
3

> <i_qp_RuleOfFive>
0

> <i_qp_RuleOfThree>
0

> <i_qp_#ringatoms>
12

> <i_qp_#in34>
0

> <i_qp_#in56>
12

> <i_qp_#noncon>
5

> <i_qp_#nonHatm>
20

> <r_qp_Jm>
0.225753

> <stars>
0

> <logP>
3.08116

> <Caco>
1484.89

> <MDCK>
839.097

> <HumanOralAbsorption>
3

> <PercentHumanOralAbsorption>
100.0

> <RuleOfFive>
0

> <base>
fda.sdf

$$$$
Molecule_2
                    3D
 Schrodinger Suite 2022-3.
 54 56  0  0  1  0            999 V2000
   -6.1163   -8.2678   39.1661 C   0  0  0  0  0  0
   -7.0047   -7.9063   40.1048 C   0  0  0  0  0  0
   -7.1527   -6.4260   40.2792 C   0  0  0  0  0  0
   -7.3823   -6.8298   35.7210 C   0  0  0  0  0  0
   -7.6447   -6.2235   34.5509 C   0  0  0  0  0  0
   -6.2009   -7.7854   35.8441 C   0  0  0  0  0  0
   -6.6233   -9.2253   36.1782 C   0  0  0  0  0  0
   -8.4031   -4.2254   39.8822 C   0  0  0  0  0  0
   -5.6407   -9.5751   38.7103 C   0  0  2  0  0  0
   -8.2425   -6.6237   36.9634 C   0  0  1  0  0  0
   -5.7734   -9.9122   37.2216 C   0  0  1  0  0  0
   -7.6742   -5.5571   37.9293 C   0  0  1  0  0  0
   -7.6274   -3.3607   38.8848 C   0  0  1  0  0  0
   -7.8927   -4.0737   37.5543 C   0  0  2  0  0  0
   -8.1864   -5.6792   39.4059 C   0  0  1  0  0  0
   -6.4440  -10.7831   38.2810 C   0  0  0  0  0  0
   -7.7635   -8.7822   41.0400 C   0  0  0  0  0  0
   -8.0481   -1.8998   38.9312 C   0  0  0  0  0  0
   -5.8201  -12.1404   38.5199 C   0  0  0  0  0  0
   -7.9467  -10.8137   38.4184 C   0  0  0  0  0  0
   -6.4287   -5.8540   41.0939 O   0  0  0  0  0  0
   -9.5985   -6.3444   36.6179 O   0  0  0  0  0  0
   -9.2158   -3.8255   37.1052 O   0  0  0  0  0  0
   -9.4209   -6.3702   39.4931 O   0  0  0  0  0  0
   -5.5927   -7.3989   38.6811 H   0  0  0  0  0  0
   -8.4810   -5.5473   34.4643 H   0  0  0  0  0  0
   -7.0212   -6.4086   33.6903 H   0  0  0  0  0  0
   -5.6662   -7.7876   34.9003 H   0  0  0  0  0  0
   -5.5109   -7.4396   36.6064 H   0  0  0  0  0  0
   -7.6916   -9.2485   36.4278 H   0  0  0  0  0  0
   -6.5365   -9.8154   35.2520 H   0  0  0  0  0  0
   -8.0202   -4.0534   40.8917 H   0  0  0  0  0  0
   -9.4666   -3.9680   39.8815 H   0  0  0  0  0  0
   -4.6392   -9.8231   39.1257 H   0  0  0  0  0  0
   -8.2569   -7.5662   37.5111 H   0  0  0  0  0  0
   -4.8888  -10.3519   36.7483 H   0  0  0  0  0  0
   -6.5793   -5.6954   37.9676 H   0  0  0  0  0  0
   -6.5659   -3.4310   39.1132 H   0  0  0  0  0  0
   -7.1943   -3.7484   36.7676 H   0  0  0  0  0  0
   -7.1947   -8.9224   41.9593 H   0  0  0  0  0  0
   -7.9416   -9.7529   40.5764 H   0  0  0  0  0  0
   -8.7242   -8.3250   41.2782 H   0  0  0  0  0  0
   -9.1112   -1.8082   38.7046 H   0  0  0  0  0  0
   -7.4813   -1.3229   38.1993 H   0  0  0  0  0  0
   -7.8631   -1.4876   39.9241 H   0  0  0  0  0  0
   -6.4860  -12.9356   38.1724 H   0  0  0  0  0  0
   -5.6284  -12.2926   39.5860 H   0  0  0  0  0  0
   -4.8708  -12.2264   37.9830 H   0  0  0  0  0  0
   -8.3484  -11.7658   38.0569 H   0  0  0  0  0  0
   -8.4043  -10.0061   37.8381 H   0  0  0  0  0  0
   -8.2414  -10.6930   39.4658 H   0  0  0  0  0  0
   -9.9204   -7.1094   36.1155 H   0  0  0  0  0  0
   -9.2679   -2.8793   36.8923 H   0  0  0  0  0  0
   -9.6742   -6.3632   40.4287 H   0  0  0  0  0  0
  1  2  2  0  0  0
  1  9  1  0  0  0
  1 25  1  0  0  0
  2  3  1  0  0  0
  2 17  1  0  0  0
  3 15  1  0  0  0
  3 21  2  0  0  0
  4  5  2  0  0  0
  4  6  1  0  0  0
  4 10  1  0  0  0
  5 26  1  0  0  0
  5 27  1  0  0  0
  6  7  1  0  0  0
  6 28  1  0  0  0
  6 29  1  0  0  0
  7 11  1  0  0  0
  7 30  1  0  0  0
  7 31  1  0  0  0
  8 13  1  0  0  0
  8 15  1  0  0  0
  8 32  1  0  0  0
  8 33  1  0  0  0
  9 11  1  0  0  0
  9 16  1  0  0  0
  9 34  1  0  0  0
 10 12  1  0  0  0
 10 22  1  0  0  0
 10 35  1  0  0  0
 11 16  1  0  0  0
 11 36  1  0  0  0
 12 14  1  0  0  0
 12 15  1  0  0  0
 12 37  1  0  0  0
 13 14  1  0  0  0
 13 18  1  0  0  0
 13 38  1  0  0  0
 14 23  1  0  0  0
 14 39  1  0  0  0
 15 24  1  0  0  0
 16 19  1  0  0  0
 16 20  1  0  0  0
 17 40  1  0  0  0
 17 41  1  0  0  0
 17 42  1  0  0  0
 18 43  1  0  0  0
 18 44  1  0  0  0
 18 45  1  0  0  0
 19 46  1  0  0  0
 19 47  1  0  0  0
 19 48  1  0  0  0
 20 49  1  0  0  0
 20 50  1  0  0  0
 20 51  1  0  0  0
 22 52  1  0  0  0
 23 53  1  0  0  0
 24 54  1  0  0  0
M  END
> <EON_Query>
60c

> <EON_ET_pb>
0.155

> <EON_ET_coul>
0.227

> <EON_ET_combo>
0.605

> <EON_ShapeTanimoto>
0.45

> <ROCS_ShapeQuery>
60c

> <ROCS_TanimotoCombo>
0.723

> <ROCS_ShapeTanimoto>
0.513

> <ROCS_ColorTanimoto>
0.21

> <ROCS_RefTversky>
0.614

> <ROCS_RefColorTversky>
0.331

> <ROCS_RefTverskyCombo>
0.945

> <ROCS_FitTversky>
0.758

> <ROCS_FitColorTversky>
0.364

> <ROCS_FitTverskyCombo>
1.121

> <ROCS_ColorScore>
-3.294

> <ROCS_Overlap>
798.314

> <ROCS_Rank>
1473

> <EON_Rank>
655

> <i_qp_#stars>
0

> <i_qp_#amine>
0

> <i_qp_#amidine>
0

> <i_qp_#acid>
0

> <i_qp_#amide>
0

> <i_qp_#rotor>
3

> <i_qp_#rtvFG>
1

> <i_qp_CNS>
-1

> <r_qp_mol_MW>
334.455

> <r_qp_dipole>
2.04043

> <r_qp_SASA>
566.244

> <r_qp_FOSA>
439.163

> <r_qp_FISA>
97.1118

> <r_qp_PISA>
29.9702

> <r_qp_WPSA>
0

> <r_qp_volume>
1060.8

> <r_qp_donorHB>
3

> <r_qp_accptHB>
6.15

> <r_qp_dip^2/V>
0.00392472

> <r_qp_ACxDN^.5/SA>
0.0188119

> <r_qp_glob>
0.888349

> <r_qp_QPpolrz>
34.6591

> <r_qp_QPlogPC16>
9.78261

> <r_qp_QPlogPoct>
18.7664

> <r_qp_QPlogPw>
11.7361

> <r_qp_QPlogPo/w>
2.51849

> <r_qp_QPlogS>
-3.91463

> <r_qp_CIQPlogS>
-3.07337

> <r_qp_QPlogHERG>
-3.48156

> <r_qp_QPPCaco>
1188.47

> <r_qp_QPlogBB>
-0.437711

> <r_qp_QPPMDCK>
596.217

> <r_qp_QPlogKp>
-2.91566

> <r_qp_IP(eV)>
9.81476

> <r_qp_EA(eV)>
-0.465032

> <i_qp_#metab>
6

> <r_qp_QPlogKhsa>
0.186544

> <i_qp_HumanOralAbsorption>
3

> <r_qp_PercentHumanOralAbsorption>
96.7284

> <r_qp_SAfluorine>
0

> <r_qp_SAamideO>
0

> <r_qp_PSA>
71.6933

> <i_qp_#NandO>
4

> <i_qp_RuleOfFive>
0

> <i_qp_RuleOfThree>
0

> <i_qp_#ringatoms>
15

> <i_qp_#in34>
3

> <i_qp_#in56>
5

> <i_qp_#noncon>
11

> <i_qp_#nonHatm>
24

> <r_qp_Jm>
0.0494363

> <stars>
0

> <logP>
2.51849

> <Caco>
1188.47

> <MDCK>
596.217

> <HumanOralAbsorption>
3

> <PercentHumanOralAbsorption>
96.7284

> <RuleOfFive>
0

> <base>
fda.sdf

$$$$
Molecule_1
                    3D
 Schrodinger Suite 2022-3.
 56 62  0  0  1  0            999 V2000
   -8.3570   -5.4408   37.0448 C   0  0  0  0  0  0
   -7.3071   -4.3561   39.4424 C   0  0  0  0  0  0
   -7.5679   -6.2114   37.8851 C   0  0  0  0  0  0
   -7.0506   -5.6661   39.0744 C   0  0  0  0  0  0
   -8.6230   -4.1186   37.4071 C   0  0  0  0  0  0
   -8.0994   -3.5805   38.5930 C   0  0  0  0  0  0
   -5.8661  -11.2796   39.4222 C   0  0  0  0  0  0
   -6.9341  -10.8537   38.7248 C   0  0  0  0  0  0
   -5.8807   -6.6110   41.0929 C   0  0  0  0  0  0
   -5.5093  -11.0097   40.8540 C   0  0  0  0  0  0
   -7.0060  -11.0641   37.2333 C   0  0  0  0  0  0
   -5.6065   -8.0148   41.6491 C   0  0  0  0  0  0
   -5.9721   -7.6178   36.6083 C   0  0  0  0  0  0
   -8.9142   -9.3964   38.1556 C   0  0  0  0  0  0
   -5.7417   -9.0792   36.2830 C   0  0  0  0  0  0
   -8.0318   -9.9709   39.2871 C   0  0  2  0  0  0
   -7.4592   -8.7530   40.0088 C   0  0  2  0  0  0
   -6.5232   -7.9379   39.0963 C   0  0  1  0  0  0
   -8.0400   -8.6942   37.1192 C   0  0  1  0  0  0
   -6.7799   -8.9902   41.3740 C   0  0  1  0  0  0
   -7.0778   -7.6254   37.6761 C   0  0  1  0  0  0
   -9.8920   -3.9620   35.4010 C   0  0  0  0  0  0
   -7.8021   -1.8074   40.1504 C   0  0  0  0  0  0
   -6.3630   -6.6572   39.7903 N   0  0  0  0  0  0
   -7.0942   -9.7404   36.4796 N   0  3  2  0  0  0
   -5.6834   -5.6045   41.7670 O   0  0  0  0  0  0
   -6.5009  -10.3628   41.6343 O   0  0  0  0  0  0
   -9.3952   -3.3477   36.5878 O   0  0  0  0  0  0
   -8.3669   -2.2862   38.9323 O   0  0  0  0  0  0
   -8.7484   -5.8450   36.1182 H   0  0  0  0  0  0
   -6.9238   -3.9252   40.3576 H   0  0  0  0  0  0
   -5.0982  -11.8849   38.8554 H   0  0  0  0  0  0
   -5.1317  -11.9436   41.3663 H   0  0  0  0  0  0
   -4.6077  -10.3407   40.8617 H   0  0  0  0  0  0
   -6.1454  -11.6019   36.8291 H   0  0  0  0  0  0
   -7.9047  -11.6270   36.9696 H   0  0  0  0  0  0
   -4.6932   -8.3579   41.2037 H   0  0  0  0  0  0
   -5.4820   -7.9203   42.7117 H   0  0  0  0  0  0
   -5.0480   -7.1269   36.9412 H   0  0  0  0  0  0
   -6.2998   -7.0922   35.6988 H   0  0  0  0  0  0
   -9.5018  -10.1943   37.6845 H   0  0  0  0  0  0
   -9.6464   -8.6892   38.5641 H   0  0  0  0  0  0
   -5.4264   -9.2491   35.2481 H   0  0  0  0  0  0
   -5.0220   -9.5376   36.9707 H   0  0  0  0  0  0
   -8.6511  -10.5414   39.9592 H   0  0  0  0  0  0
   -8.3391   -8.1326   40.2384 H   0  0  0  0  0  0
   -5.5480   -8.4237   39.0370 H   0  0  0  0  0  0
   -8.6486   -8.3199   36.2914 H   0  0  0  0  0  0
   -7.6139   -8.7094   42.1527 H   0  0  0  0  0  0
  -10.4906   -3.2405   34.8395 H   0  0  0  0  0  0
  -10.5018   -4.8293   35.6664 H   0  0  0  0  0  0
   -9.0475   -4.2864   34.7885 H   0  0  0  0  0  0
   -8.0915   -0.7648   40.3020 H   0  0  0  0  0  0
   -6.7132   -1.8918   40.1060 H   0  0  0  0  0  0
   -8.1789   -2.4120   40.9787 H   0  0  0  0  0  0
   -7.4588   -9.9432   35.5708 H   0  0  0  0  0  0
  1  3  2  0  0  0
  1  5  1  0  0  0
  1 30  1  0  0  0
  2  4  2  0  0  0
  2  6  1  0  0  0
  2 31  1  0  0  0
  3  4  1  0  0  0
  3 21  1  0  0  0
  4 24  1  0  0  0
  5  6  2  0  0  0
  5 28  1  0  0  0
  6 29  1  0  0  0
  7  8  2  0  0  0
  7 10  1  0  0  0
  7 32  1  0  0  0
  8 11  1  0  0  0
  8 16  1  0  0  0
  9 12  1  0  0  0
  9 24  1  0  0  0
  9 26  2  0  0  0
 10 27  1  0  0  0
 10 33  1  0  0  0
 10 34  1  0  0  0
 11 25  1  0  0  0
 11 35  1  0  0  0
 11 36  1  0  0  0
 12 20  1  0  0  0
 12 37  1  0  0  0
 12 38  1  0  0  0
 13 15  1  0  0  0
 13 21  1  0  0  0
 13 39  1  0  0  0
 13 40  1  0  0  0
 14 16  1  0  0  0
 14 19  1  0  0  0
 14 41  1  0  0  0
 14 42  1  0  0  0
 15 25  1  0  0  0
 15 43  1  0  0  0
 15 44  1  0  0  0
 16 17  1  0  0  0
 16 45  1  0  0  0
 17 18  1  0  0  0
 17 20  1  0  0  0
 17 46  1  0  0  0
 18 21  1  0  0  0
 18 24  1  0  0  0
 18 47  1  0  0  0
 19 21  1  0  0  0
 19 25  1  0  0  0
 19 48  1  0  0  0
 20 27  1  0  0  0
 20 49  1  0  0  0
 22 28  1  0  0  0
 22 50  1  0  0  0
 22 51  1  0  0  0
 22 52  1  0  0  0
 23 29  1  0  0  0
 23 53  1  0  0  0
 23 54  1  0  0  0
 23 55  1  0  0  0
 25 56  1  0  0  0
M  CHG  1  25   1
M  END
> <EON_Query>
60c

> <EON_ET_pb>
0.098

> <EON_ET_coul>
0.079

> <EON_ET_combo>
0.603

> <EON_ShapeTanimoto>
0.505

> <ROCS_ShapeQuery>
60c

> <ROCS_TanimotoCombo>
0.675

> <ROCS_ShapeTanimoto>
0.492

> <ROCS_ColorTanimoto>
0.184

> <ROCS_RefTversky>
0.675

> <ROCS_RefColorTversky>
0.358

> <ROCS_RefTverskyCombo>
1.033

> <ROCS_FitTversky>
0.644

> <ROCS_FitColorTversky>
0.275

> <ROCS_FitTverskyCombo>
0.918

> <ROCS_ColorScore>
-3.64

> <ROCS_Overlap>
889.188

> <ROCS_Rank>
2090

> <EON_Rank>
668

> <i_qp_#stars>
0

> <i_qp_#amine>
1

> <i_qp_#amidine>
0

> <i_qp_#acid>
0

> <i_qp_#amide>
0

> <i_qp_#rotor>
2

> <i_qp_#rtvFG>
0

> <i_qp_CNS>
2

> <r_qp_mol_MW>
394.469

> <r_qp_dipole>
4.51282

> <r_qp_SASA>
564.805

> <r_qp_FOSA>
484.307

> <r_qp_FISA>
42.5851

> <r_qp_PISA>
37.9124

> <r_qp_WPSA>
0

> <r_qp_volume>
1097.46

> <r_qp_donorHB>
0

> <r_qp_accptHB>
8.2

> <r_qp_dip^2/V>
0.018557

> <r_qp_ACxDN^.5/SA>
0

> <r_qp_glob>
0.911014

> <r_qp_QPpolrz>
36.8441

> <r_qp_QPlogPC16>
9.19111

> <r_qp_QPlogPoct>
16.3385

> <r_qp_QPlogPw>
9.26163

> <r_qp_QPlogPo/w>
1.68417

> <r_qp_QPlogS>
-1.08163

> <r_qp_CIQPlogS>
-3.07985

> <r_qp_QPlogHERG>
-3.87884

> <r_qp_QPPCaco>
974.913

> <r_qp_QPlogBB>
0.499384

> <r_qp_QPPMDCK>
532.48

> <r_qp_QPlogKp>
-4.04137

> <r_qp_IP(eV)>
8.28769

> <r_qp_EA(eV)>
-0.0809619

> <i_qp_#metab>
7

> <r_qp_QPlogKhsa>
-0.474503

> <i_qp_HumanOralAbsorption>
3

> <r_qp_PercentHumanOralAbsorption>
90.3037

> <r_qp_SAfluorine>
0

> <r_qp_SAamideO>
0

> <r_qp_PSA>
61.3216

> <i_qp_#NandO>
6

> <i_qp_RuleOfFive>
0

> <i_qp_RuleOfThree>
1

> <i_qp_#ringatoms>
24

> <i_qp_#in34>
0

> <i_qp_#in56>
21

> <i_qp_#noncon>
12

> <i_qp_#nonHatm>
29

> <r_qp_Jm>
2.9718

> <stars>
0

> <logP>
1.68417

> <Caco>
974.913

> <MDCK>
532.48

> <HumanOralAbsorption>
3

> <PercentHumanOralAbsorption>
90.3037

> <RuleOfFive>
0

> <base>
fda.sdf

$$$$
S4877 Eperisone hydrochloride.cdx_15
                    3D
 Schrodinger Suite 2022-3.
 45 46  0  0  1  0            999 V2000
   -5.4778   -9.1859   36.6543 C   0  0  0  0  0  0
   -4.7509  -11.3433   37.4631 C   0  0  0  0  0  0
   -5.1880   -9.5781   35.3475 C   0  0  0  0  0  0
   -4.4611  -11.7356   36.1562 C   0  0  0  0  0  0
   -5.2592  -10.0684   37.7121 C   0  0  0  0  0  0
   -4.6797  -10.8529   35.0984 C   0  0  0  0  0  0
   -5.5687   -9.6507   39.1082 C   0  0  0  0  0  0
   -8.6863   -3.9683   37.9254 C   0  0  0  0  0  0
   -8.1926   -3.9677   39.3682 C   0  0  0  0  0  0
   -8.9368   -5.3878   37.4280 C   0  0  0  0  0  0
   -6.9718   -4.8590   39.5464 C   0  0  0  0  0  0
   -7.7137   -6.2742   37.6134 C   0  0  0  0  0  0
   -2.9366  -10.9403   33.2983 C   0  0  0  0  0  0
   -7.3058   -8.9368   40.7331 C   0  0  0  0  0  0
   -4.3711  -11.2722   33.7007 C   0  0  0  0  0  0
   -6.1615   -7.2076   39.3276 C   0  0  0  0  0  0
   -6.6914   -8.6441   39.3652 C   0  0  1  0  0  0
   -7.2941   -6.2537   39.0642 N   0  3  0  0  0  0
   -4.9113  -10.1320   40.0299 O   0  0  0  0  0  0
   -5.8736   -8.1903   36.8376 H   0  0  0  0  0  0
   -4.5765  -12.0392   38.2795 H   0  0  0  0  0  0
   -5.3617   -8.8842   34.5294 H   0  0  0  0  0  0
   -4.0659  -12.7310   35.9712 H   0  0  0  0  0  0
   -9.6074   -3.3797   37.8478 H   0  0  0  0  0  0
   -7.9405   -3.4829   37.2840 H   0  0  0  0  0  0
   -7.9471   -2.9442   39.6724 H   0  0  0  0  0  0
   -8.9982   -4.3115   40.0289 H   0  0  0  0  0  0
   -9.7881   -5.8185   37.9700 H   0  0  0  0  0  0
   -9.2145   -5.3625   36.3684 H   0  0  0  0  0  0
   -6.1140   -4.4966   38.9691 H   0  0  0  0  0  0
   -6.6982   -4.9312   40.6040 H   0  0  0  0  0  0
   -7.9460   -7.3118   37.3524 H   0  0  0  0  0  0
   -6.8633   -5.9266   37.0157 H   0  0  0  0  0  0
   -2.7359   -9.8690   33.4075 H   0  0  0  0  0  0
   -2.7535  -11.2148   32.2548 H   0  0  0  0  0  0
   -2.2181  -11.4820   33.9228 H   0  0  0  0  0  0
   -6.5595   -8.8532   41.5300 H   0  0  0  0  0  0
   -7.7206   -9.9497   40.7647 H   0  0  0  0  0  0
   -8.1118   -8.2317   40.9659 H   0  0  0  0  0  0
   -4.5377  -12.3546   33.5789 H   0  0  0  0  0  0
   -5.0644  -10.7896   32.9931 H   0  0  0  0  0  0
   -5.4247   -7.0455   38.5347 H   0  0  0  0  0  0
   -5.7290   -6.9130   40.2888 H   0  0  0  0  0  0
   -7.4637   -8.7365   38.5941 H   0  0  0  0  0  0
   -8.0765   -6.5734   39.5986 H   0  0  0  0  0  0
  1  3  2  0  0  0
  1  5  1  0  0  0
  1 20  1  0  0  0
  2  4  1  0  0  0
  2  5  2  0  0  0
  2 21  1  0  0  0
  3  6  1  0  0  0
  3 22  1  0  0  0
  4  6  2  0  0  0
  4 23  1  0  0  0
  5  7  1  0  0  0
  6 15  1  0  0  0
  7 17  1  0  0  0
  7 19  2  0  0  0
  8  9  1  0  0  0
  8 10  1  0  0  0
  8 24  1  0  0  0
  8 25  1  0  0  0
  9 11  1  0  0  0
  9 26  1  0  0  0
  9 27  1  0  0  0
 10 12  1  0  0  0
 10 28  1  0  0  0
 10 29  1  0  0  0
 11 18  1  0  0  0
 11 30  1  0  0  0
 11 31  1  0  0  0
 12 18  1  0  0  0
 12 32  1  0  0  0
 12 33  1  0  0  0
 13 15  1  0  0  0
 13 34  1  0  0  0
 13 35  1  0  0  0
 13 36  1  0  0  0
 14 17  1  0  0  0
 14 37  1  0  0  0
 14 38  1  0  0  0
 14 39  1  0  0  0
 15 40  1  0  0  0
 15 41  1  0  0  0
 16 17  1  0  0  0
 16 18  1  0  0  0
 16 42  1  0  0  0
 16 43  1  0  0  0
 17 44  1  0  0  0
 18 45  1  0  0  0
M  CHG  1  18   1
M  END
> <EON_Query>
60c

> <EON_ET_pb>
0.017

> <EON_ET_coul>
-0.023

> <EON_ET_combo>
0.603

> <EON_ShapeTanimoto>
0.586

> <ROCS_ShapeQuery>
60c

> <ROCS_TanimotoCombo>
0.759

> <ROCS_ShapeTanimoto>
0.631

> <ROCS_ColorTanimoto>
0.127

> <ROCS_RefTversky>
0.637

> <ROCS_RefColorTversky>
0.195

> <ROCS_RefTverskyCombo>
0.832

> <ROCS_FitTversky>
0.986

> <ROCS_FitColorTversky>
0.268

> <ROCS_FitTverskyCombo>
1.254

> <ROCS_ColorScore>
-1.918

> <ROCS_Overlap>
820.508

> <ROCS_Rank>
1037

> <EON_Rank>
672

> <i_qp_#stars>
0

> <i_qp_#amine>
1

> <i_qp_#amidine>
0

> <i_qp_#acid>
0

> <i_qp_#amide>
0

> <i_qp_#rotor>
5

> <i_qp_#rtvFG>
0

> <i_qp_CNS>
1

> <r_qp_mol_MW>
259.391

> <r_qp_dipole>
4.21144

> <r_qp_SASA>
570.634

> <r_qp_FOSA>
424.408

> <r_qp_FISA>
33.5924

> <r_qp_PISA>
112.633

> <r_qp_WPSA>
0

> <r_qp_volume>
1013.01

> <r_qp_donorHB>
0

> <r_qp_accptHB>
4

> <r_qp_dip^2/V>
0.0175085

> <r_qp_ACxDN^.5/SA>
0

> <r_qp_glob>
0.854837

> <r_qp_QPpolrz>
32.2518

> <r_qp_QPlogPC16>
8.67499

> <r_qp_QPlogPoct>
12.2139

> <r_qp_QPlogPw>
4.92404

> <r_qp_QPlogPo/w>
3.32837

> <r_qp_QPlogS>
-2.86147

> <r_qp_CIQPlogS>
-2.07336

> <r_qp_QPlogHERG>
-5.14419

> <r_qp_QPPCaco>
1186.43

> <r_qp_QPlogBB>
0.354198

> <r_qp_QPPMDCK>
658.382

> <r_qp_QPlogKp>
-3.32438

> <r_qp_IP(eV)>
9.24495

> <r_qp_EA(eV)>
0.357784

> <i_qp_#metab>
3

> <r_qp_QPlogKhsa>
0.276466

> <i_qp_HumanOralAbsorption>
3

> <r_qp_PercentHumanOralAbsorption>
100

> <r_qp_SAfluorine>
0

> <r_qp_SAamideO>
0

> <r_qp_PSA>
28.582

> <i_qp_#NandO>
2

> <i_qp_RuleOfFive>
0

> <i_qp_RuleOfThree>
0

> <i_qp_#ringatoms>
12

> <i_qp_#in34>
0

> <i_qp_#in56>
12

> <i_qp_#noncon>
5

> <i_qp_#nonHatm>
19

> <r_qp_Jm>
0.15373

> <stars>
0

> <logP>
3.32837

> <Caco>
1186.43

> <MDCK>
658.382

> <HumanOralAbsorption>
3

> <PercentHumanOralAbsorption>
100.0

> <RuleOfFive>
0

> <base>
fda.sdf

$$$$
BindingDB_50007664_mol_1_0
                    3D
 Schrodinger Suite 2022-3.
 36 38  0  0  1  0            999 V2000
   -8.5976   -4.1507   38.1481 C   0  0  0  0  0  0
   -9.0552   -5.4313   37.8377 C   0  0  0  0  0  0
   -7.4594   -3.9892   38.9383 C   0  0  0  0  0  0
   -8.3747   -6.5504   38.3173 C   0  0  0  0  0  0
   -6.7789   -5.1084   39.4180 C   0  0  0  0  0  0
   -5.6509  -10.7824   37.7530 C   0  0  0  0  0  0
   -5.1059  -10.2572   36.5816 C   0  0  0  0  0  0
   -5.3811   -8.0381   37.4688 C   0  0  0  0  0  0
   -7.2365   -6.3890   39.1076 C   0  0  0  0  0  0
   -5.9431   -8.5591   38.6492 C   0  0  0  0  0  0
   -6.0449   -9.9539   38.8202 C   0  0  0  0  0  0
   -4.9580   -8.8841   36.4457 C   0  0  0  0  0  0
   -6.5128   -7.5792   39.6176 C   0  0  0  0  0  0
   -6.4354  -10.1559   41.1759 C   0  0  0  0  0  0
   -5.6999   -8.9188   41.4881 C   0  0  0  0  0  0
   -7.6952  -12.0525   42.0378 C   0  0  0  0  0  0
   -6.5374  -10.5951   39.9258 N   0  3  0  0  0  0
   -6.4059   -7.7606   40.9213 N   0  3  0  0  0  0
   -6.9467  -10.8153   42.2090 N   0  0  0  0  0  0
   -6.9336   -6.9460   41.7532 O   0  5  0  0  0  0
   -4.2752   -8.2277   35.0091 Cl  0  0  0  0  0  0
   -9.1275   -3.2794   37.7747 H   0  0  0  0  0  0
   -9.9414   -5.5568   37.2227 H   0  0  0  0  0  0
   -7.1030   -2.9922   39.1798 H   0  0  0  0  0  0
   -8.7398   -7.5437   38.0693 H   0  0  0  0  0  0
   -5.8932   -4.9706   40.0329 H   0  0  0  0  0  0
   -5.7442  -11.8637   37.8425 H   0  0  0  0  0  0
   -4.7955  -10.9344   35.7901 H   0  0  0  0  0  0
   -5.2810   -6.9622   37.3379 H   0  0  0  0  0  0
   -5.6124   -8.7595   42.5695 H   0  0  0  0  0  0
   -4.6784   -8.9331   41.0917 H   0  0  0  0  0  0
   -8.7583  -11.8334   41.9074 H   0  0  0  0  0  0
   -7.5729  -12.6928   42.9156 H   0  0  0  0  0  0
   -7.3366  -12.5925   41.1574 H   0  0  0  0  0  0
   -6.8091  -10.4442   43.1373 H   0  0  0  0  0  0
   -7.0118  -11.4634   39.7807 H   0  0  0  0  0  0
  1  2  2  0  0  0
  1  3  1  0  0  0
  1 22  1  0  0  0
  2  4  1  0  0  0
  2 23  1  0  0  0
  3  5  2  0  0  0
  3 24  1  0  0  0
  4  9  2  0  0  0
  4 25  1  0  0  0
  5  9  1  0  0  0
  5 26  1  0  0  0
  6  7  2  0  0  0
  6 11  1  0  0  0
  6 27  1  0  0  0
  7 12  1  0  0  0
  7 28  1  0  0  0
  8 10  1  0  0  0
  8 12  2  0  0  0
  8 29  1  0  0  0
  9 13  1  0  0  0
 10 11  2  0  0  0
 10 13  1  0  0  0
 11 17  1  0  0  0
 12 21  1  0  0  0
 13 18  2  0  0  0
 14 15  1  0  0  0
 14 17  2  0  0  0
 14 19  1  0  0  0
 15 18  1  0  0  0
 15 30  1  0  0  0
 15 31  1  0  0  0
 16 19  1  0  0  0
 16 32  1  0  0  0
 16 33  1  0  0  0
 16 34  1  0  0  0
 17 36  1  0  0  0
 18 20  1  0  0  0
 19 35  1  0  0  0
M  CHG  3  17   1  18   1  20  -1
M  END
> <EON_Query>
60c

> <EON_ET_pb>
0.109

> <EON_ET_coul>
0.065

> <EON_ET_combo>
0.602

> <EON_ShapeTanimoto>
0.493

> <ROCS_ShapeQuery>
60c

> <ROCS_TanimotoCombo>
0.711

> <ROCS_ShapeTanimoto>
0.591

> <ROCS_ColorTanimoto>
0.12

> <ROCS_RefTversky>
0.651

> <ROCS_RefColorTversky>
0.185

> <ROCS_RefTverskyCombo>
0.836

> <ROCS_FitTversky>
0.864

> <ROCS_FitColorTversky>
0.255

> <ROCS_FitTverskyCombo>
1.119

> <ROCS_ColorScore>
-1.824

> <ROCS_Overlap>
843.459

> <ROCS_Rank>
1633

> <EON_Rank>
676

> <i_qp_#stars>
0

> <i_qp_#amine>
0

> <i_qp_#amidine>
0

> <i_qp_#acid>
0

> <i_qp_#amide>
0

> <i_qp_#rotor>
0

> <i_qp_#rtvFG>
0

> <i_qp_CNS>
1

> <r_qp_mol_MW>
299.759

> <r_qp_dipole>
5.58679

> <r_qp_SASA>
546.226

> <r_qp_FOSA>
134.312

> <r_qp_FISA>
62.3436

> <r_qp_PISA>
278.086

> <r_qp_WPSA>
71.4854

> <r_qp_volume>
932.676

> <r_qp_donorHB>
1

> <r_qp_accptHB>
3

> <r_qp_dip^2/V>
0.0334652

> <r_qp_ACxDN^.5/SA>
0.00549223

> <r_qp_glob>
0.845174

> <r_qp_QPpolrz>
33.8274

> <r_qp_QPlogPC16>
9.96127

> <r_qp_QPlogPoct>
14.7797

> <r_qp_QPlogPw>
7.79399

> <r_qp_QPlogPo/w>
3.66873

> <r_qp_QPlogS>
-5.24966

> <r_qp_CIQPlogS>
-4.74126

> <r_qp_QPlogHERG>
-5.36343

> <r_qp_QPPCaco>
2539.19

> <r_qp_QPlogBB>
0.15705

> <r_qp_QPPMDCK>
3337.15

> <r_qp_QPlogKp>
-1.68888

> <r_qp_IP(eV)>
8.39157

> <r_qp_EA(eV)>
0.630105

> <i_qp_#metab>
1

> <r_qp_QPlogKhsa>
0.576466

> <i_qp_HumanOralAbsorption>
3

> <r_qp_PercentHumanOralAbsorption>
100

> <r_qp_SAfluorine>
0

> <r_qp_SAamideO>
0

> <r_qp_PSA>
50.6531

> <i_qp_#NandO>
4

> <i_qp_RuleOfFive>
0

> <i_qp_RuleOfThree>
0

> <i_qp_#ringatoms>
17

> <i_qp_#in34>
0

> <i_qp_#in56>
12

> <i_qp_#noncon>
1

> <i_qp_#nonHatm>
21

> <r_qp_Jm>
0.0214534

> <stars>
0

> <logP>
3.66873

> <Caco>
2539.19

> <MDCK>
3337.15

> <HumanOralAbsorption>
3

> <PercentHumanOralAbsorption>
100.0

> <RuleOfFive>
0

> <base>
fda.sdf

$$$$
Molecule_21
                    3D
 Schrodinger Suite 2022-3.
 47 50  0  0  1  0            999 V2000
   -8.9697   -5.4645   37.5817 C   0  0  0  0  0  0
   -8.6532   -4.1265   37.8164 C   0  0  0  0  0  0
   -8.2832   -6.4727   38.2585 C   0  0  0  0  0  0
   -7.6501   -3.7966   38.7277 C   0  0  0  0  0  0
   -4.8570   -9.5097   35.6525 C   0  0  0  0  0  0
   -5.2871   -9.4152   37.0086 C   0  0  0  0  0  0
   -7.2801   -6.1429   39.1698 C   0  0  0  0  0  0
   -6.9636   -4.8049   39.4044 C   0  0  0  0  0  0
   -5.3223  -10.6550   37.6145 C   0  0  0  0  0  0
   -4.5904  -10.8111   35.2835 C   0  0  0  0  0  0
   -7.2118   -7.6093   41.2139 C   0  0  0  0  0  0
   -2.9311  -10.7308   33.6626 C   0  0  0  0  0  0
   -5.6464   -8.1736   37.7517 C   0  0  0  0  0  0
   -5.7525  -10.8952   39.0267 C   0  0  0  0  0  0
   -7.0457   -7.7252   43.7717 C   0  0  0  0  0  0
   -6.0561   -8.7082   43.2225 C   0  0  0  0  0  0
   -5.6895   -9.5972   39.8413 C   0  0  0  0  0  0
   -6.3832   -7.4725   42.4672 C   0  0  0  0  0  0
   -2.5502  -11.2888   32.3234 C   0  0  0  0  0  0
   -6.5392   -7.2372   39.9007 C   0  0  1  0  0  0
   -6.3636   -8.4741   39.0668 N   0  3  1  0  0  0
   -8.3726   -8.0168   41.2680 O   0  0  0  0  0  0
   -2.2547   -9.9271   34.2908 O   0  0  0  0  0  0
   -4.1739  -11.2534   34.1008 O   0  0  0  0  0  0
   -6.0015   -4.4780   40.2784 F   0  0  0  0  0  0
   -4.8571  -11.9128   36.5685 S   0  0  0  0  0  0
   -9.7506   -5.7217   36.8716 H   0  0  0  0  0  0
   -9.1874   -3.3417   37.2890 H   0  0  0  0  0  0
   -8.5363   -7.5124   38.0688 H   0  0  0  0  0  0
   -7.4036   -2.7548   38.9109 H   0  0  0  0  0  0
   -4.7467   -8.6664   34.9823 H   0  0  0  0  0  0
   -4.7410   -7.6089   38.0017 H   0  0  0  0  0  0
   -6.3237   -7.5433   37.1659 H   0  0  0  0  0  0
   -6.7814  -11.2757   39.0241 H   0  0  0  0  0  0
   -5.1220  -11.6520   39.5066 H   0  0  0  0  0  0
   -8.0869   -8.0224   43.8023 H   0  0  0  0  0  0
   -6.7329   -7.1046   44.6024 H   0  0  0  0  0  0
   -5.0770   -8.7496   43.6840 H   0  0  0  0  0  0
   -6.4331   -9.6665   42.8864 H   0  0  0  0  0  0
   -6.2205   -9.7128   40.7919 H   0  0  0  0  0  0
   -4.6573   -9.2820   40.0329 H   0  0  0  0  0  0
   -5.6529   -6.6966   42.3920 H   0  0  0  0  0  0
   -1.9645  -12.2022   32.4551 H   0  0  0  0  0  0
   -1.9382  -10.5575   31.7873 H   0  0  0  0  0  0
   -3.4496  -11.4885   31.7357 H   0  0  0  0  0  0
   -5.5160   -6.9213   40.1357 H   0  0  0  0  0  0
   -7.2790   -8.7977   38.8275 H   0  0  0  0  0  0
  1  2  2  0  0  0
  1  3  1  0  0  0
  1 27  1  0  0  0
  2  4  1  0  0  0
  2 28  1  0  0  0
  3  7  2  0  0  0
  3 29  1  0  0  0
  4  8  2  0  0  0
  4 30  1  0  0  0
  5  6  1  0  0  0
  5 10  2  0  0  0
  5 31  1  0  0  0
  6  9  2  0  0  0
  6 13  1  0  0  0
  7  8  1  0  0  0
  7 20  1  0  0  0
  8 25  1  0  0  0
  9 14  1  0  0  0
  9 26  1  0  0  0
 10 24  1  0  0  0
 10 26  1  0  0  0
 11 18  1  0  0  0
 11 20  1  0  0  0
 11 22  2  0  0  0
 12 19  1  0  0  0
 12 23  2  0  0  0
 12 24  1  0  0  0
 13 21  1  0  0  0
 13 32  1  0  0  0
 13 33  1  0  0  0
 14 17  1  0  0  0
 14 34  1  0  0  0
 14 35  1  0  0  0
 15 16  1  0  0  0
 15 18  1  0  0  0
 15 36  1  0  0  0
 15 37  1  0  0  0
 16 18  1  0  0  0
 16 38  1  0  0  0
 16 39  1  0  0  0
 17 21  1  0  0  0
 17 40  1  0  0  0
 17 41  1  0  0  0
 18 42  1  0  0  0
 19 43  1  0  0  0
 19 44  1  0  0  0
 19 45  1  0  0  0
 20 21  1  0  0  0
 20 46  1  0  0  0
 21 47  1  0  0  0
M  CHG  1  21   1
M  END
> <EON_Query>
60c

> <EON_ET_pb>
0.061

> <EON_ET_coul>
0.027

> <EON_ET_combo>
0.602

> <EON_ShapeTanimoto>
0.542

> <ROCS_ShapeQuery>
60c

> <ROCS_TanimotoCombo>
0.769

> <ROCS_ShapeTanimoto>
0.641

> <ROCS_ColorTanimoto>
0.128

> <ROCS_RefTversky>
0.739

> <ROCS_RefColorTversky>
0.196

> <ROCS_RefTverskyCombo>
0.934

> <ROCS_FitTversky>
0.828

> <ROCS_FitColorTversky>
0.269

> <ROCS_FitTverskyCombo>
1.098

> <ROCS_ColorScore>
-1.929

> <ROCS_Overlap>
964.192

> <ROCS_Rank>
930

> <EON_Rank>
678

> <i_qp_#stars>
0

> <i_qp_#amine>
1

> <i_qp_#amidine>
0

> <i_qp_#acid>
0

> <i_qp_#amide>
0

> <i_qp_#rotor>
5

> <i_qp_#rtvFG>
3

> <i_qp_CNS>
1

> <r_qp_mol_MW>
373.441

> <r_qp_dipole>
2.52759

> <r_qp_SASA>
643.41

> <r_qp_FOSA>
306.91

> <r_qp_FISA>
72.3406

> <r_qp_PISA>
189.396

> <r_qp_WPSA>
74.7626

> <r_qp_volume>
1145.39

> <r_qp_donorHB>
0

> <r_qp_accptHB>
6.5

> <r_qp_dip^2/V>
0.00557778

> <r_qp_ACxDN^.5/SA>
0

> <r_qp_glob>
0.822835

> <r_qp_QPpolrz>
38.2828

> <r_qp_QPlogPC16>
10.8091

> <r_qp_QPlogPoct>
16.1238

> <r_qp_QPlogPw>
8.37354

> <r_qp_QPlogPo/w>
3.08146

> <r_qp_QPlogS>
-3.29881

> <r_qp_CIQPlogS>
-3.4509

> <r_qp_QPlogHERG>
-6.02809

> <r_qp_QPPCaco>
509.089

> <r_qp_QPlogBB>
0.131808

> <r_qp_QPPMDCK>
677.42

> <r_qp_QPlogKp>
-3.7681

> <r_qp_IP(eV)>
9.18997

> <r_qp_EA(eV)>
0.512154

> <i_qp_#metab>
6

> <r_qp_QPlogKhsa>
-0.00798225

> <i_qp_HumanOralAbsorption>
3

> <r_qp_PercentHumanOralAbsorption>
93.4346

> <r_qp_SAfluorine>
30.5652

> <r_qp_SAamideO>
0

> <r_qp_PSA>
62.7728

> <i_qp_#NandO>
4

> <i_qp_RuleOfFive>
0

> <i_qp_RuleOfThree>
0

> <i_qp_#ringatoms>
18

> <i_qp_#in34>
3

> <i_qp_#in56>
15

> <i_qp_#noncon>
6

> <i_qp_#nonHatm>
26

> <r_qp_Jm>
0.0320122

> <stars>
0

> <logP>
3.08146

> <Caco>
509.089

> <MDCK>
677.42

> <HumanOralAbsorption>
3

> <PercentHumanOralAbsorption>
93.4346

> <RuleOfFive>
0

> <base>
fda.sdf

$$$$
S4637 Prasugrel Hydrochloride.cdx_21
                    3D
 Schrodinger Suite 2022-3.
 47 50  0  0  1  0            999 V2000
   -8.9697   -5.4645   37.5817 C   0  0  0  0  0  0
   -8.6532   -4.1265   37.8164 C   0  0  0  0  0  0
   -8.2832   -6.4727   38.2585 C   0  0  0  0  0  0
   -7.6501   -3.7966   38.7277 C   0  0  0  0  0  0
   -4.8570   -9.5097   35.6525 C   0  0  0  0  0  0
   -5.2871   -9.4152   37.0086 C   0  0  0  0  0  0
   -7.2801   -6.1429   39.1698 C   0  0  0  0  0  0
   -6.9636   -4.8049   39.4044 C   0  0  0  0  0  0
   -5.3223  -10.6550   37.6145 C   0  0  0  0  0  0
   -4.5904  -10.8111   35.2835 C   0  0  0  0  0  0
   -7.2118   -7.6093   41.2139 C   0  0  0  0  0  0
   -2.9311  -10.7308   33.6626 C   0  0  0  0  0  0
   -5.6464   -8.1736   37.7517 C   0  0  0  0  0  0
   -5.7525  -10.8952   39.0267 C   0  0  0  0  0  0
   -7.0457   -7.7252   43.7717 C   0  0  0  0  0  0
   -6.0561   -8.7082   43.2225 C   0  0  0  0  0  0
   -5.6895   -9.5972   39.8413 C   0  0  0  0  0  0
   -6.3832   -7.4725   42.4672 C   0  0  0  0  0  0
   -2.5502  -11.2888   32.3234 C   0  0  0  0  0  0
   -6.5392   -7.2372   39.9007 C   0  0  1  0  0  0
   -6.3636   -8.4741   39.0668 N   0  3  1  0  0  0
   -8.3726   -8.0168   41.2680 O   0  0  0  0  0  0
   -2.2547   -9.9271   34.2908 O   0  0  0  0  0  0
   -4.1739  -11.2534   34.1008 O   0  0  0  0  0  0
   -6.0015   -4.4780   40.2784 F   0  0  0  0  0  0
   -4.8571  -11.9128   36.5685 S   0  0  0  0  0  0
   -9.7506   -5.7217   36.8716 H   0  0  0  0  0  0
   -9.1874   -3.3417   37.2890 H   0  0  0  0  0  0
   -8.5363   -7.5124   38.0688 H   0  0  0  0  0  0
   -7.4036   -2.7548   38.9109 H   0  0  0  0  0  0
   -4.7467   -8.6664   34.9823 H   0  0  0  0  0  0
   -4.7410   -7.6089   38.0017 H   0  0  0  0  0  0
   -6.3237   -7.5433   37.1659 H   0  0  0  0  0  0
   -6.7814  -11.2757   39.0241 H   0  0  0  0  0  0
   -5.1220  -11.6520   39.5066 H   0  0  0  0  0  0
   -8.0869   -8.0224   43.8023 H   0  0  0  0  0  0
   -6.7329   -7.1046   44.6024 H   0  0  0  0  0  0
   -5.0770   -8.7496   43.6840 H   0  0  0  0  0  0
   -6.4331   -9.6665   42.8864 H   0  0  0  0  0  0
   -6.2205   -9.7128   40.7919 H   0  0  0  0  0  0
   -4.6573   -9.2820   40.0329 H   0  0  0  0  0  0
   -5.6529   -6.6966   42.3920 H   0  0  0  0  0  0
   -1.9645  -12.2022   32.4551 H   0  0  0  0  0  0
   -1.9382  -10.5575   31.7873 H   0  0  0  0  0  0
   -3.4496  -11.4885   31.7357 H   0  0  0  0  0  0
   -5.5160   -6.9213   40.1357 H   0  0  0  0  0  0
   -7.2790   -8.7977   38.8275 H   0  0  0  0  0  0
  1  2  2  0  0  0
  1  3  1  0  0  0
  1 27  1  0  0  0
  2  4  1  0  0  0
  2 28  1  0  0  0
  3  7  2  0  0  0
  3 29  1  0  0  0
  4  8  2  0  0  0
  4 30  1  0  0  0
  5  6  1  0  0  0
  5 10  2  0  0  0
  5 31  1  0  0  0
  6  9  2  0  0  0
  6 13  1  0  0  0
  7  8  1  0  0  0
  7 20  1  0  0  0
  8 25  1  0  0  0
  9 14  1  0  0  0
  9 26  1  0  0  0
 10 24  1  0  0  0
 10 26  1  0  0  0
 11 18  1  0  0  0
 11 20  1  0  0  0
 11 22  2  0  0  0
 12 19  1  0  0  0
 12 23  2  0  0  0
 12 24  1  0  0  0
 13 21  1  0  0  0
 13 32  1  0  0  0
 13 33  1  0  0  0
 14 17  1  0  0  0
 14 34  1  0  0  0
 14 35  1  0  0  0
 15 16  1  0  0  0
 15 18  1  0  0  0
 15 36  1  0  0  0
 15 37  1  0  0  0
 16 18  1  0  0  0
 16 38  1  0  0  0
 16 39  1  0  0  0
 17 21  1  0  0  0
 17 40  1  0  0  0
 17 41  1  0  0  0
 18 42  1  0  0  0
 19 43  1  0  0  0
 19 44  1  0  0  0
 19 45  1  0  0  0
 20 21  1  0  0  0
 20 46  1  0  0  0
 21 47  1  0  0  0
M  CHG  1  21   1
M  END
> <EON_Query>
60c

> <EON_ET_pb>
0.061

> <EON_ET_coul>
0.027

> <EON_ET_combo>
0.602

> <EON_ShapeTanimoto>
0.542

> <ROCS_ShapeQuery>
60c

> <ROCS_TanimotoCombo>
0.769

> <ROCS_ShapeTanimoto>
0.641

> <ROCS_ColorTanimoto>
0.128

> <ROCS_RefTversky>
0.739

> <ROCS_RefColorTversky>
0.196

> <ROCS_RefTverskyCombo>
0.934

> <ROCS_FitTversky>
0.828

> <ROCS_FitColorTversky>
0.269

> <ROCS_FitTverskyCombo>
1.098

> <ROCS_ColorScore>
-1.929

> <ROCS_Overlap>
964.192

> <ROCS_Rank>
931

> <EON_Rank>
679

> <i_qp_#stars>
0

> <i_qp_#amine>
1

> <i_qp_#amidine>
0

> <i_qp_#acid>
0

> <i_qp_#amide>
0

> <i_qp_#rotor>
5

> <i_qp_#rtvFG>
3

> <i_qp_CNS>
1

> <r_qp_mol_MW>
373.441

> <r_qp_dipole>
2.52759

> <r_qp_SASA>
643.41

> <r_qp_FOSA>
306.91

> <r_qp_FISA>
72.3406

> <r_qp_PISA>
189.396

> <r_qp_WPSA>
74.7626

> <r_qp_volume>
1145.39

> <r_qp_donorHB>
0

> <r_qp_accptHB>
6.5

> <r_qp_dip^2/V>
0.00557778

> <r_qp_ACxDN^.5/SA>
0

> <r_qp_glob>
0.822835

> <r_qp_QPpolrz>
38.2828

> <r_qp_QPlogPC16>
10.8091

> <r_qp_QPlogPoct>
16.1238

> <r_qp_QPlogPw>
8.37354

> <r_qp_QPlogPo/w>
3.08146

> <r_qp_QPlogS>
-3.29881

> <r_qp_CIQPlogS>
-3.4509

> <r_qp_QPlogHERG>
-6.02809

> <r_qp_QPPCaco>
509.089

> <r_qp_QPlogBB>
0.131808

> <r_qp_QPPMDCK>
677.42

> <r_qp_QPlogKp>
-3.7681

> <r_qp_IP(eV)>
9.18997

> <r_qp_EA(eV)>
0.512154

> <i_qp_#metab>
6

> <r_qp_QPlogKhsa>
-0.00798225

> <i_qp_HumanOralAbsorption>
3

> <r_qp_PercentHumanOralAbsorption>
93.4346

> <r_qp_SAfluorine>
30.5652

> <r_qp_SAamideO>
0

> <r_qp_PSA>
62.7728

> <i_qp_#NandO>
4

> <i_qp_RuleOfFive>
0

> <i_qp_RuleOfThree>
0

> <i_qp_#ringatoms>
18

> <i_qp_#in34>
3

> <i_qp_#in56>
15

> <i_qp_#noncon>
6

> <i_qp_#nonHatm>
26

> <r_qp_Jm>
0.0320122

> <stars>
0

> <logP>
3.08146

> <Caco>
509.089

> <MDCK>
677.42

> <HumanOralAbsorption>
3

> <PercentHumanOralAbsorption>
93.4346

> <RuleOfFive>
0

> <base>
fda.sdf

$$$$
Molecule_0
                    3D
 Schrodinger Suite 2022-3.
 45 46  0  0  1  0            999 V2000
   -7.4737   -4.4892   38.9598 C   0  0  0  0  0  0
   -7.0335   -5.6462   39.6028 C   0  0  0  0  0  0
   -8.3988   -4.5784   37.9196 C   0  0  0  0  0  0
   -8.4434   -6.9815   38.1653 C   0  0  0  0  0  0
   -7.5183   -6.8922   39.2056 C   0  0  0  0  0  0
   -8.8836   -5.8245   37.5224 C   0  0  0  0  0  0
   -5.0598  -10.2472   40.7715 C   0  0  0  0  0  0
   -5.5894   -9.2087   41.7519 C   0  0  0  0  0  0
   -6.0495  -10.5106   39.6405 C   0  0  0  0  0  0
   -6.0092   -7.9170   41.0452 C   0  0  0  0  0  0
   -6.4829   -9.2249   38.9055 C   0  0  1  0  0  0
   -7.0348   -8.1616   39.9108 C   0  0  2  0  0  0
   -6.1197  -10.2142   36.2173 C   0  0  0  0  0  0
   -3.7760   -9.3728   36.2101 C   0  0  0  0  0  0
  -10.2410   -7.2165   36.1528 C   0  0  0  0  0  0
   -5.3356   -8.6975   38.0302 C   0  0  0  0  0  0
   -4.9598   -9.7526   37.0721 N   0  3  0  0  0  0
   -8.1970   -8.7002   40.5752 O   0  0  0  0  0  0
   -9.7869   -5.9114   36.5078 O   0  0  0  0  0  0
   -7.0965   -3.5192   39.2695 H   0  0  0  0  0  0
   -6.3122   -5.5668   40.4118 H   0  0  0  0  0  0
   -8.7378   -3.6737   37.4230 H   0  0  0  0  0  0
   -8.8230   -7.9517   37.8534 H   0  0  0  0  0  0
   -4.1021   -9.9087   40.3593 H   0  0  0  0  0  0
   -4.8564  -11.1831   41.3047 H   0  0  0  0  0  0
   -6.4383   -9.6248   42.3070 H   0  0  0  0  0  0
   -4.8158   -8.9806   42.4945 H   0  0  0  0  0  0
   -5.6069  -11.2186   38.9292 H   0  0  0  0  0  0
   -6.9348  -11.0121   40.0504 H   0  0  0  0  0  0
   -6.4456   -7.2482   41.7991 H   0  0  0  0  0  0
   -5.1170   -7.4099   40.6569 H   0  0  0  0  0  0
   -7.2992   -9.5088   38.2276 H   0  0  0  0  0  0
   -6.4665   -9.3587   35.6350 H   0  0  0  0  0  0
   -5.7578  -11.0119   35.5658 H   0  0  0  0  0  0
   -6.9030  -10.5778   36.8851 H   0  0  0  0  0  0
   -4.0558   -8.4931   35.6276 H   0  0  0  0  0  0
   -2.9366   -9.1541   36.8729 H   0  0  0  0  0  0
   -3.5516  -10.2196   35.5588 H   0  0  0  0  0  0
  -10.9572   -7.1429   35.3308 H   0  0  0  0  0  0
  -10.7118   -7.6877   37.0193 H   0  0  0  0  0  0
   -9.3850   -7.8163   35.8347 H   0  0  0  0  0  0
   -4.4665   -8.4696   38.6383 H   0  0  0  0  0  0
   -5.6562   -7.8284   37.4656 H   0  0  0  0  0  0
   -8.8491   -8.8821   39.8819 H   0  0  0  0  0  0
   -4.6737  -10.5448   37.6111 H   0  0  0  0  0  0
  1  2  2  0  0  0
  1  3  1  0  0  0
  1 20  1  0  0  0
  2  5  1  0  0  0
  2 21  1  0  0  0
  3  6  2  0  0  0
  3 22  1  0  0  0
  4  5  2  0  0  0
  4  6  1  0  0  0
  4 23  1  0  0  0
  5 12  1  0  0  0
  6 19  1  0  0  0
  7  8  1  0  0  0
  7  9  1  0  0  0
  7 24  1  0  0  0
  7 25  1  0  0  0
  8 10  1  0  0  0
  8 26  1  0  0  0
  8 27  1  0  0  0
  9 11  1  0  0  0
  9 28  1  0  0  0
  9 29  1  0  0  0
 10 12  1  0  0  0
 10 30  1  0  0  0
 10 31  1  0  0  0
 11 12  1  0  0  0
 11 16  1  0  0  0
 11 32  1  0  0  0
 12 18  1  0  0  0
 13 17  1  0  0  0
 13 33  1  0  0  0
 13 34  1  0  0  0
 13 35  1  0  0  0
 14 17  1  0  0  0
 14 36  1  0  0  0
 14 37  1  0  0  0
 14 38  1  0  0  0
 15 19  1  0  0  0
 15 39  1  0  0  0
 15 40  1  0  0  0
 15 41  1  0  0  0
 16 17  1  0  0  0
 16 42  1  0  0  0
 16 43  1  0  0  0
 17 45  1  0  0  0
 18 44  1  0  0  0
M  CHG  1  17   1
M  END
> <EON_Query>
60c

> <EON_ET_pb>
0.088

> <EON_ET_coul>
0.063

> <EON_ET_combo>
0.602

> <EON_ShapeTanimoto>
0.514

> <ROCS_ShapeQuery>
60c

> <ROCS_TanimotoCombo>
0.72

> <ROCS_ShapeTanimoto>
0.562

> <ROCS_ColorTanimoto>
0.158

> <ROCS_RefTversky>
0.595

> <ROCS_RefColorTversky>
0.236

> <ROCS_RefTverskyCombo>
0.831

> <ROCS_FitTversky>
0.911

> <ROCS_FitColorTversky>
0.325

> <ROCS_FitTverskyCombo>
1.235

> <ROCS_ColorScore>
-2.322

> <ROCS_Overlap>
766.484

> <ROCS_Rank>
1505

> <EON_Rank>
681

> <i_qp_#stars>
0

> <i_qp_#amine>
1

> <i_qp_#amidine>
0

> <i_qp_#acid>
0

> <i_qp_#amide>
0

> <i_qp_#rotor>
4

> <i_qp_#rtvFG>
0

> <i_qp_CNS>
2

> <r_qp_mol_MW>
263.379

> <r_qp_dipole>
2.29206

> <r_qp_SASA>
507.879

> <r_qp_FOSA>
365.187

> <r_qp_FISA>
28.1359

> <r_qp_PISA>
114.556

> <r_qp_WPSA>
0

> <r_qp_volume>
917.824

> <r_qp_donorHB>
1

> <r_qp_accptHB>
3.5

> <r_qp_dip^2/V>
0.00572389

> <r_qp_ACxDN^.5/SA>
0.0068914

> <r_qp_glob>
0.899313

> <r_qp_QPpolrz>
29.1029

> <r_qp_QPlogPC16>
8.17579

> <r_qp_QPlogPoct>
12.2496

> <r_qp_QPlogPw>
5.94169

> <r_qp_QPlogPo/w>
2.9967

> <r_qp_QPlogS>
-2.42547

> <r_qp_CIQPlogS>
-2.44523

> <r_qp_QPlogHERG>
-4.43369

> <r_qp_QPPCaco>
1336.56

> <r_qp_QPlogBB>
0.489008

> <r_qp_QPPMDCK>
748.872

> <r_qp_QPlogKp>
-3.31306

> <r_qp_IP(eV)>
9.11077

> <r_qp_EA(eV)>
-0.109836

> <i_qp_#metab>
4

> <r_qp_QPlogKhsa>
0.290471

> <i_qp_HumanOralAbsorption>
3

> <r_qp_PercentHumanOralAbsorption>
100

> <r_qp_SAfluorine>
0

> <r_qp_SAamideO>
0

> <r_qp_PSA>
30.5158

> <i_qp_#NandO>
3

> <i_qp_RuleOfFive>
0

> <i_qp_RuleOfThree>
0

> <i_qp_#ringatoms>
12

> <i_qp_#in34>
0

> <i_qp_#in56>
12

> <i_qp_#noncon>
6

> <i_qp_#nonHatm>
19

> <r_qp_Jm>
0.480894

> <stars>
0

> <logP>
2.9967

> <Caco>
1336.56

> <MDCK>
748.872

> <HumanOralAbsorption>
3

> <PercentHumanOralAbsorption>
100.0

> <RuleOfFive>
0

> <base>
fda.sdf

$$$$
Bisacodyl.cdx_3
                    3D
 Schrodinger Suite 2022-3.
 46 48  0  0  1  0            999 V2000
   -6.4091  -10.2087   42.3346 C   0  0  0  0  0  0
   -5.3937   -9.3950   42.8244 C   0  0  0  0  0  0
   -7.1979   -9.5956   36.7588 C   0  0  0  0  0  0
   -5.0494   -9.3193   37.8289 C   0  0  0  0  0  0
   -8.5639   -6.4631   39.4143 C   0  0  0  0  0  0
   -6.5320   -6.1810   38.1381 C   0  0  0  0  0  0
   -6.5761  -10.2013   35.6669 C   0  0  0  0  0  0
   -4.4278   -9.9251   36.7370 C   0  0  0  0  0  0
   -8.8431   -5.1041   39.2701 C   0  0  0  0  0  0
   -6.8112   -4.8220   37.9939 C   0  0  0  0  0  0
   -6.9750   -9.9344   41.0945 C   0  0  0  0  0  0
   -4.9831   -8.3280   42.0419 C   0  0  0  0  0  0
   -6.4346   -9.1546   37.8398 C   0  0  0  0  0  0
   -7.4083   -7.0015   38.8483 C   0  0  0  0  0  0
   -5.1911  -10.3661   35.6560 C   0  0  0  0  0  0
   -7.9668   -4.2835   38.5599 C   0  0  0  0  0  0
   -6.4939   -8.8431   40.3893 C   0  0  0  0  0  0
   -4.4610  -12.3529   34.7036 C   0  0  0  0  0  0
   -8.9988   -2.6467   37.2779 C   0  0  0  0  0  0
   -3.7835  -12.9085   33.4862 C   0  0  0  0  0  0
   -8.2344   -1.7080   36.3923 C   0  0  0  0  0  0
   -7.0991   -8.5075   39.0074 C   0  0  0  0  0  0
   -5.5089   -8.0299   40.8325 N   0  0  0  0  0  0
   -4.8417  -13.0307   35.6489 O   0  0  0  0  0  0
  -10.1189   -3.0712   37.0267 O   0  0  0  0  0  0
   -4.5848  -10.9584   34.5911 O   0  0  0  0  0  0
   -8.2400   -2.9578   38.4183 O   0  0  0  0  0  0
   -6.7587  -11.0552   42.9181 H   0  0  0  0  0  0
   -4.9379   -9.5901   43.7885 H   0  0  0  0  0  0
   -8.2774   -9.4711   36.7588 H   0  0  0  0  0  0
   -4.4467   -8.9786   38.6667 H   0  0  0  0  0  0
   -9.2521   -7.0948   39.9693 H   0  0  0  0  0  0
   -5.6291   -6.5920   37.6937 H   0  0  0  0  0  0
   -7.1764  -10.5430   34.8278 H   0  0  0  0  0  0
   -3.3487  -10.0509   36.7347 H   0  0  0  0  0  0
   -9.7452   -4.6905   39.7132 H   0  0  0  0  0  0
   -6.1249   -4.1883   37.4393 H   0  0  0  0  0  0
   -7.7679  -10.5614   40.7010 H   0  0  0  0  0  0
   -4.1945   -7.6633   42.3788 H   0  0  0  0  0  0
   -4.5305  -13.1658   32.7309 H   0  0  0  0  0  0
   -3.2372  -13.8160   33.7584 H   0  0  0  0  0  0
   -3.0722  -12.1782   33.0924 H   0  0  0  0  0  0
   -8.4596   -0.6741   36.6656 H   0  0  0  0  0  0
   -8.5344   -1.8665   35.3524 H   0  0  0  0  0  0
   -7.1630   -1.9059   36.4801 H   0  0  0  0  0  0
   -8.1144   -8.9582   39.0713 H   0  0  0  0  0  0
  1  2  2  0  0  0
  1 11  1  0  0  0
  1 28  1  0  0  0
  2 12  1  0  0  0
  2 29  1  0  0  0
  3  7  2  0  0  0
  3 13  1  0  0  0
  3 30  1  0  0  0
  4  8  1  0  0  0
  4 13  2  0  0  0
  4 31  1  0  0  0
  5  9  2  0  0  0
  5 14  1  0  0  0
  5 32  1  0  0  0
  6 10  1  0  0  0
  6 14  2  0  0  0
  6 33  1  0  0  0
  7 15  1  0  0  0
  7 34  1  0  0  0
  8 15  2  0  0  0
  8 35  1  0  0  0
  9 16  1  0  0  0
  9 36  1  0  0  0
 10 16  2  0  0  0
 10 37  1  0  0  0
 11 17  2  0  0  0
 11 38  1  0  0  0
 12 23  2  0  0  0
 12 39  1  0  0  0
 13 22  1  0  0  0
 14 22  1  0  0  0
 15 26  1  0  0  0
 16 27  1  0  0  0
 17 22  1  0  0  0
 17 23  1  0  0  0
 18 20  1  0  0  0
 18 24  2  0  0  0
 18 26  1  0  0  0
 19 21  1  0  0  0
 19 25  2  0  0  0
 19 27  1  0  0  0
 20 40  1  0  0  0
 20 41  1  0  0  0
 20 42  1  0  0  0
 21 43  1  0  0  0
 21 44  1  0  0  0
 21 45  1  0  0  0
 22 46  1  0  0  0
M  END
> <EON_Query>
60c

> <EON_ET_pb>
0.209

> <EON_ET_coul>
0.249

> <EON_ET_combo>
0.6

> <EON_ShapeTanimoto>
0.391

> <ROCS_ShapeQuery>
60c

> <ROCS_TanimotoCombo>
0.751

> <ROCS_ShapeTanimoto>
0.553

> <ROCS_ColorTanimoto>
0.198

> <ROCS_RefTversky>
0.69

> <ROCS_RefColorTversky>
0.27

> <ROCS_RefTverskyCombo>
0.96

> <ROCS_FitTversky>
0.735

> <ROCS_FitColorTversky>
0.426

> <ROCS_FitTverskyCombo>
1.162

> <ROCS_ColorScore>
-2.644

> <ROCS_Overlap>
902.721

> <ROCS_Rank>
1127

> <EON_Rank>
688

> <i_qp_#stars>
0

> <i_qp_#amine>
0

> <i_qp_#amidine>
0

> <i_qp_#acid>
0

> <i_qp_#amide>
0

> <i_qp_#rotor>
5

> <i_qp_#rtvFG>
2

> <i_qp_CNS>
-1

> <r_qp_mol_MW>
361.396

> <r_qp_dipole>
3.56783

> <r_qp_SASA>
654.309

> <r_qp_FOSA>
182.583

> <r_qp_FISA>
99.0954

> <r_qp_PISA>
372.631

> <r_qp_WPSA>
0

> <r_qp_volume>
1176.13

> <r_qp_donorHB>
0

> <r_qp_accptHB>
6

> <r_qp_dip^2/V>
0.0108231

> <r_qp_ACxDN^.5/SA>
0

> <r_qp_glob>
0.823542

> <r_qp_QPpolrz>
41.2629

> <r_qp_QPlogPC16>
12.4672

> <r_qp_QPlogPoct>
17.0402

> <r_qp_QPlogPw>
9.30948

> <r_qp_QPlogPo/w>
3.79669

> <r_qp_QPlogS>
-4.66076

> <r_qp_CIQPlogS>
-5.04366

> <r_qp_QPlogHERG>
-6.16435

> <r_qp_QPPCaco>
1138.09

> <r_qp_QPlogBB>
-0.711941

> <r_qp_QPPMDCK>
568.947

> <r_qp_QPlogKp>
-1.55311

> <r_qp_IP(eV)>
9.39495

> <r_qp_EA(eV)>
0.153846

> <i_qp_#metab>
3

> <r_qp_QPlogKhsa>
0.215007

> <i_qp_HumanOralAbsorption>
3

> <r_qp_PercentHumanOralAbsorption>
100

> <r_qp_SAfluorine>
0

> <r_qp_SAamideO>
0

> <r_qp_PSA>
85.8482

> <i_qp_#NandO>
5

> <i_qp_RuleOfFive>
0

> <i_qp_RuleOfThree>
0

> <i_qp_#ringatoms>
18

> <i_qp_#in34>
0

> <i_qp_#in56>
18

> <i_qp_#noncon>
0

> <i_qp_#nonHatm>
27

> <r_qp_Jm>
0.220857

> <stars>
0

> <logP>
3.79669

> <Caco>
1138.09

> <MDCK>
568.947

> <HumanOralAbsorption>
3

> <PercentHumanOralAbsorption>
100.0

> <RuleOfFive>
0

> <base>
fda.sdf

$$$$
Melatonin.cdx_1
                    3D
 Schrodinger Suite 2022-3.
 33 34  0  0  1  0            999 V2000
   -8.3379   -7.0708   38.4650 C   0  0  0  0  0  0
   -7.5183   -4.4907   39.4961 C   0  0  0  0  0  0
   -6.2406   -7.0241   41.3895 C   0  0  0  0  0  0
   -7.4998   -6.9120   39.6275 C   0  0  0  0  0  0
   -6.9662   -7.8526   40.4137 C   0  0  0  0  0  0
   -7.1096   -5.6049   40.1150 C   0  0  0  0  0  0
   -8.7617   -5.9661   37.8253 C   0  0  0  0  0  0
   -5.1204  -10.2154   37.8696 C   0  0  0  0  0  0
   -8.4013   -4.5552   38.2661 C   0  0  0  0  0  0
   -4.4113   -9.6004   36.7090 C   0  0  0  0  0  0
   -9.8506   -7.4042   36.3680 C   0  0  0  0  0  0
   -7.0007   -9.3268   40.4300 C   0  0  0  0  0  0
   -5.5996   -9.9214   40.2917 C   0  0  0  0  0  0
   -6.3187   -5.7383   41.2242 N   0  0  0  0  0  0
   -4.9923   -9.5054   39.0484 N   0  0  0  0  0  0
   -5.7427  -11.2594   37.7132 O   0  0  0  0  0  0
   -9.5655   -6.0693   36.7078 O   0  0  0  0  0  0
   -8.6120   -8.0628   38.1256 H   0  0  0  0  0  0
   -7.2224   -3.5136   39.8651 H   0  0  0  0  0  0
   -5.6763   -7.5108   42.1984 H   0  0  0  0  0  0
   -9.3246   -4.0017   38.4739 H   0  0  0  0  0  0
   -7.8857   -4.0468   37.4429 H   0  0  0  0  0  0
   -3.3742   -9.9594   36.6115 H   0  0  0  0  0  0
   -4.8934   -9.8389   35.7472 H   0  0  0  0  0  0
   -4.3367   -8.5013   36.7308 H   0  0  0  0  0  0
  -10.4874   -7.4270   35.4802 H   0  0  0  0  0  0
  -10.3554   -7.8940   37.2044 H   0  0  0  0  0  0
   -8.9138   -7.9246   36.1551 H   0  0  0  0  0  0
   -7.6175   -9.6681   39.5847 H   0  0  0  0  0  0
   -7.4781   -9.6735   41.3596 H   0  0  0  0  0  0
   -4.9660   -9.5861   41.1193 H   0  0  0  0  0  0
   -5.6395  -11.0153   40.3225 H   0  0  0  0  0  0
   -4.4449   -8.6497   39.0402 H   0  0  0  0  0  0
  1  4  1  0  0  0
  1  7  2  0  0  0
  1 18  1  0  0  0
  2  6  2  0  0  0
  2  9  1  0  0  0
  2 19  1  0  0  0
  3  5  1  0  0  0
  3 14  2  0  0  0
  3 20  1  0  0  0
  4  5  2  0  0  0
  4  6  1  0  0  0
  5 12  1  0  0  0
  6 14  1  0  0  0
  7  9  1  0  0  0
  7 17  1  0  0  0
  8 10  1  0  0  0
  8 15  1  0  0  0
  8 16  2  0  0  0
  9 21  1  0  0  0
  9 22  1  0  0  0
 10 23  1  0  0  0
 10 24  1  0  0  0
 10 25  1  0  0  0
 11 17  1  0  0  0
 11 26  1  0  0  0
 11 27  1  0  0  0
 11 28  1  0  0  0
 12 13  1  0  0  0
 12 29  1  0  0  0
 12 30  1  0  0  0
 13 15  1  0  0  0
 13 31  1  0  0  0
 13 32  1  0  0  0
 15 33  1  0  0  0
M  END
> <EON_Query>
60c

> <EON_ET_pb>
0.059

> <EON_ET_coul>
0.097

> <EON_ET_combo>
0.599

> <EON_ShapeTanimoto>
0.54

> <ROCS_ShapeQuery>
60c

> <ROCS_TanimotoCombo>
0.738

> <ROCS_ShapeTanimoto>
0.574

> <ROCS_ColorTanimoto>
0.164

> <ROCS_RefTversky>
0.586

> <ROCS_RefColorTversky>
0.23

> <ROCS_RefTverskyCombo>
0.817

> <ROCS_FitTversky>
0.965

> <ROCS_FitColorTversky>
0.363

> <ROCS_FitTverskyCombo>
1.328

> <ROCS_ColorScore>
-2.259

> <ROCS_Overlap>
753.587

> <ROCS_Rank>
1278

> <EON_Rank>
694

> <i_qp_#stars>
0

> <i_qp_#amine>
0

> <i_qp_#amidine>
0

> <i_qp_#acid>
0

> <i_qp_#amide>
1

> <i_qp_#rotor>
4

> <i_qp_#rtvFG>
0

> <i_qp_CNS>
0

> <r_qp_mol_MW>
232.282

> <r_qp_dipole>
3.24626

> <r_qp_SASA>
477.349

> <r_qp_FOSA>
300.767

> <r_qp_FISA>
80.4132

> <r_qp_PISA>
96.169

> <r_qp_WPSA>
0

> <r_qp_volume>
811.176

> <r_qp_donorHB>
1

> <r_qp_accptHB>
4.75

> <r_qp_dip^2/V>
0.0129912

> <r_qp_ACxDN^.5/SA>
0.00995078

> <r_qp_glob>
0.881195

> <r_qp_QPpolrz>
24.6593

> <r_qp_QPlogPC16>
7.27551

> <r_qp_QPlogPoct>
11.6194

> <r_qp_QPlogPw>
9.84721

> <r_qp_QPlogPo/w>
1.34595

> <r_qp_QPlogS>
-1.74724

> <r_qp_CIQPlogS>
-1.93217

> <r_qp_QPlogHERG>
-2.53861

> <r_qp_QPPCaco>
917.426

> <r_qp_QPlogBB>
-0.367977

> <r_qp_QPPMDCK>
884.228

> <r_qp_QPlogKp>
-2.2787

> <r_qp_IP(eV)>
8.86229

> <r_qp_EA(eV)>
1.20922

> <i_qp_#metab>
2

> <r_qp_QPlogKhsa>
-0.542457

> <i_qp_HumanOralAbsorption>
3

> <r_qp_PercentHumanOralAbsorption>
87.8509

> <r_qp_SAfluorine>
0

> <r_qp_SAamideO>
34.0164

> <r_qp_PSA>
62.3696

> <i_qp_#NandO>
4

> <i_qp_RuleOfFive>
0

> <i_qp_RuleOfThree>
0

> <i_qp_#ringatoms>
9

> <i_qp_#in34>
0

> <i_qp_#in56>
9

> <i_qp_#noncon>
1

> <i_qp_#nonHatm>
17

> <r_qp_Jm>
31.2921

> <stars>
0

> <logP>
1.34595

> <Caco>
917.426

> <MDCK>
884.228

> <HumanOralAbsorption>
3

> <PercentHumanOralAbsorption>
87.8509

> <RuleOfFive>
0

> <base>
fda.sdf

$$$$
_c001_1
                    3D
 Schrodinger Suite 2022-3.
 30 32  0  0  1  0            999 V2000
   -9.0724   -5.4756   37.8410 C   0  0  0  0  0  0
   -8.6303   -4.1867   38.1388 C   0  0  0  0  0  0
   -8.3707   -6.5818   38.3203 C   0  0  0  0  0  0
   -5.6929  -10.7890   37.7158 C   0  0  0  0  0  0
   -7.4863   -4.0038   38.9160 C   0  0  0  0  0  0
   -5.1400  -10.2700   36.5454 C   0  0  0  0  0  0
   -5.3357   -8.0425   37.4473 C   0  0  0  0  0  0
   -7.2268   -6.3989   39.0974 C   0  0  0  0  0  0
   -5.9136   -8.5544   38.6209 C   0  0  0  0  0  0
   -6.0446   -9.9439   38.7793 C   0  0  0  0  0  0
   -6.7847   -5.1100   39.3953 C   0  0  0  0  0  0
   -4.9453   -8.8988   36.4185 C   0  0  0  0  0  0
   -6.4797   -7.5846   39.6077 C   0  0  0  0  0  0
   -6.5126  -10.0697   41.2265 C   0  0  0  0  0  0
   -5.6819   -8.8331   41.4437 C   0  0  0  0  0  0
   -6.4001   -7.7063   40.8890 N   0  0  0  0  0  0
   -6.5357  -10.5712   39.9432 N   0  0  0  0  0  0
   -7.0730  -10.6323   42.1681 O   0  0  0  0  0  0
   -5.6864   -4.9218   40.1410 F   0  0  0  0  0  0
   -4.2497   -8.2578   34.9808 Cl  0  0  0  0  0  0
   -9.9627   -5.6179   37.2358 H   0  0  0  0  0  0
   -9.1766   -3.3253   37.7658 H   0  0  0  0  0  0
   -8.7248   -7.5814   38.0817 H   0  0  0  0  0  0
   -5.8148  -11.8667   37.8027 H   0  0  0  0  0  0
   -7.1420   -3.0004   39.1480 H   0  0  0  0  0  0
   -4.8571  -10.9498   35.7457 H   0  0  0  0  0  0
   -5.2063   -6.9692   37.3218 H   0  0  0  0  0  0
   -5.5597   -8.6829   42.5219 H   0  0  0  0  0  0
   -4.6741   -8.9491   41.0289 H   0  0  0  0  0  0
   -6.9510  -11.4915   39.8225 H   0  0  0  0  0  0
  1  2  2  0  0  0
  1  3  1  0  0  0
  1 21  1  0  0  0
  2  5  1  0  0  0
  2 22  1  0  0  0
  3  8  2  0  0  0
  3 23  1  0  0  0
  4  6  2  0  0  0
  4 10  1  0  0  0
  4 24  1  0  0  0
  5 11  2  0  0  0
  5 25  1  0  0  0
  6 12  1  0  0  0
  6 26  1  0  0  0
  7  9  1  0  0  0
  7 12  2  0  0  0
  7 27  1  0  0  0
  8 11  1  0  0  0
  8 13  1  0  0  0
  9 10  2  0  0  0
  9 13  1  0  0  0
 10 17  1  0  0  0
 11 19  1  0  0  0
 12 20  1  0  0  0
 13 16  2  0  0  0
 14 15  1  0  0  0
 14 17  1  0  0  0
 14 18  2  0  0  0
 15 16  1  0  0  0
 15 28  1  0  0  0
 15 29  1  0  0  0
 17 30  1  0  0  0
M  END
> <EON_Query>
60c

> <EON_ET_pb>
0.082

> <EON_ET_coul>
0.097

> <EON_ET_combo>
0.598

> <EON_ShapeTanimoto>
0.516

> <ROCS_ShapeQuery>
60c

> <ROCS_TanimotoCombo>
0.72

> <ROCS_ShapeTanimoto>
0.589

> <ROCS_ColorTanimoto>
0.131

> <ROCS_RefTversky>
0.639

> <ROCS_RefColorTversky>
0.189

> <ROCS_RefTverskyCombo>
0.827

> <ROCS_FitTversky>
0.884

> <ROCS_FitColorTversky>
0.298

> <ROCS_FitTverskyCombo>
1.182

> <ROCS_ColorScore>
-1.848

> <ROCS_Overlap>
825.922

> <ROCS_Rank>
1514

> <EON_Rank>
696

> <i_qp_#stars>
0

> <i_qp_#amine>
0

> <i_qp_#amidine>
0

> <i_qp_#acid>
0

> <i_qp_#amide>
0

> <i_qp_#rotor>
0

> <i_qp_#rtvFG>
0

> <i_qp_CNS>
1

> <r_qp_mol_MW>
288.708

> <r_qp_dipole>
5.56791

> <r_qp_SASA>
502.67

> <r_qp_FOSA>
48.3336

> <r_qp_FISA>
87.3036

> <r_qp_PISA>
260.908

> <r_qp_WPSA>
106.125

> <r_qp_volume>
851.061

> <r_qp_donorHB>
1

> <r_qp_accptHB>
3.5

> <r_qp_dip^2/V>
0.036427

> <r_qp_ACxDN^.5/SA>
0.00696281

> <r_qp_glob>
0.864017

> <r_qp_QPpolrz>
30.3971

> <r_qp_QPlogPC16>
9.06291

> <r_qp_QPlogPoct>
14.1974

> <r_qp_QPlogPw>
8.24669

> <r_qp_QPlogPo/w>
3.00226

> <r_qp_QPlogS>
-4.1439

> <r_qp_CIQPlogS>
-4.32657

> <r_qp_QPlogHERG>
-4.97661

> <r_qp_QPPCaco>
1472.31

> <r_qp_QPlogBB>
0.0442474

> <r_qp_QPPMDCK>
2866.08

> <r_qp_QPlogKp>
-2.2094

> <r_qp_IP(eV)>
9.19202

> <r_qp_EA(eV)>
0.838995

> <i_qp_#metab>
1

> <r_qp_QPlogKhsa>
0.269597

> <i_qp_HumanOralAbsorption>
3

> <r_qp_PercentHumanOralAbsorption>
100

> <r_qp_SAfluorine>
34.6657

> <r_qp_SAamideO>
0

> <r_qp_PSA>
57.0634

> <i_qp_#NandO>
3

> <i_qp_RuleOfFive>
0

> <i_qp_RuleOfThree>
0

> <i_qp_#ringatoms>
17

> <i_qp_#in34>
0

> <i_qp_#in56>
12

> <i_qp_#noncon>
1

> <i_qp_#nonHatm>
20

> <r_qp_Jm>
0.0383578

> <stars>
0

> <logP>
3.00226

> <Caco>
1472.31

> <MDCK>
2866.08

> <HumanOralAbsorption>
3

> <PercentHumanOralAbsorption>
100.0

> <RuleOfFive>
0

> <base>
fda.sdf

$$$$
Paroxetine hydrochloride.cdx_18
                    3D
 Schrodinger Suite 2022-3.
 45 48  0  0  1  0            999 V2000
   -5.1908   -8.9807   36.8300 C   0  0  0  0  0  0
   -4.8080  -11.2900   37.4284 C   0  0  0  0  0  0
   -9.4648   -5.3884   37.1677 C   0  0  0  0  0  0
   -8.8145   -6.4606   37.7833 C   0  0  0  0  0  0
   -5.0110   -9.2998   35.4841 C   0  0  0  0  0  0
   -4.6283  -11.6090   36.0825 C   0  0  0  0  0  0
   -7.2796   -4.9405   38.9066 C   0  0  0  0  0  0
   -5.0892   -9.9759   37.8022 C   0  0  0  0  0  0
   -9.0021   -4.1173   37.4400 C   0  0  0  0  0  0
   -7.9390   -3.8993   38.2861 C   0  0  0  0  0  0
   -7.7282   -6.2380   38.6479 C   0  0  0  0  0  0
   -4.7298  -10.6138   35.1103 C   0  0  0  0  0  0
   -4.4467  -10.5741   40.1541 C   0  0  0  0  0  0
   -4.6103  -10.2601   41.6321 C   0  0  0  0  0  0
   -6.8930   -9.3371   41.2147 C   0  0  0  0  0  0
   -8.6428   -1.9868   37.5590 C   0  0  0  0  0  0
   -5.2859   -9.6289   39.2698 C   0  0  2  0  0  0
   -6.7747   -9.6264   39.7140 C   0  0  2  0  0  0
   -7.6037   -8.5947   38.9411 C   0  0  0  0  0  0
   -6.0587  -10.3077   41.9806 N   0  3  0  0  0  0
   -9.5075   -2.9587   36.9360 O   0  0  0  0  0  0
   -7.6453   -2.5770   38.4176 O   0  0  0  0  0  0
   -7.1034   -7.3074   39.2428 O   0  0  0  0  0  0
   -4.5598  -10.9208   33.8176 F   0  0  0  0  0  0
   -5.4088   -7.9540   37.1116 H   0  0  0  0  0  0
   -4.7273  -12.0720   38.1789 H   0  0  0  0  0  0
  -10.3027   -5.5557   36.5007 H   0  0  0  0  0  0
   -9.1549   -7.4747   37.5895 H   0  0  0  0  0  0
   -5.0908   -8.5253   34.7271 H   0  0  0  0  0  0
   -4.4089  -12.6318   35.7911 H   0  0  0  0  0  0
   -6.4427   -4.7584   39.5718 H   0  0  0  0  0  0
   -3.3861  -10.4987   39.8831 H   0  0  0  0  0  0
   -4.7396  -11.6171   39.9709 H   0  0  0  0  0  0
   -4.1059  -11.0018   42.2583 H   0  0  0  0  0  0
   -4.2426   -9.2607   41.8868 H   0  0  0  0  0  0
   -6.5433   -8.3320   41.4755 H   0  0  0  0  0  0
   -7.9214   -9.4603   41.5691 H   0  0  0  0  0  0
   -8.1356   -1.4140   36.7741 H   0  0  0  0  0  0
   -9.2569   -1.3012   38.1541 H   0  0  0  0  0  0
   -4.8792   -8.5942   39.4010 H   0  0  0  0  0  0
   -7.2069  -10.6176   39.5172 H   0  0  0  0  0  0
   -8.6458   -8.6617   39.2456 H   0  0  0  0  0  0
   -7.5141   -8.7800   37.8731 H   0  0  0  0  0  0
   -6.3976  -11.2301   41.7953 H   0  0  0  0  0  0
   -6.1555  -10.1065   42.9554 H   0  0  0  0  0  0
  1  5  2  0  0  0
  1  8  1  0  0  0
  1 25  1  0  0  0
  2  6  1  0  0  0
  2  8  2  0  0  0
  2 26  1  0  0  0
  3  4  2  0  0  0
  3  9  1  0  0  0
  3 27  1  0  0  0
  4 11  1  0  0  0
  4 28  1  0  0  0
  5 12  1  0  0  0
  5 29  1  0  0  0
  6 12  2  0  0  0
  6 30  1  0  0  0
  7 10  1  0  0  0
  7 11  2  0  0  0
  7 31  1  0  0  0
  8 17  1  0  0  0
  9 10  2  0  0  0
  9 21  1  0  0  0
 10 22  1  0  0  0
 11 23  1  0  0  0
 12 24  1  0  0  0
 13 14  1  0  0  0
 13 17  1  0  0  0
 13 32  1  0  0  0
 13 33  1  0  0  0
 14 20  1  0  0  0
 14 34  1  0  0  0
 14 35  1  0  0  0
 15 18  1  0  0  0
 15 20  1  0  0  0
 15 36  1  0  0  0
 15 37  1  0  0  0
 16 21  1  0  0  0
 16 22  1  0  0  0
 16 38  1  0  0  0
 16 39  1  0  0  0
 17 18  1  0  0  0
 17 40  1  0  0  0
 18 19  1  0  0  0
 18 41  1  0  0  0
 19 23  1  0  0  0
 19 42  1  0  0  0
 19 43  1  0  0  0
 20 44  1  0  0  0
 20 45  1  0  0  0
M  CHG  1  20   1
M  END
> <EON_Query>
60c

> <EON_ET_pb>
0.053

> <EON_ET_coul>
0.023

> <EON_ET_combo>
0.596

> <EON_ShapeTanimoto>
0.543

> <ROCS_ShapeQuery>
60c

> <ROCS_TanimotoCombo>
0.924

> <ROCS_ShapeTanimoto>
0.686

> <ROCS_ColorTanimoto>
0.238

> <ROCS_RefTversky>
0.753

> <ROCS_RefColorTversky>
0.368

> <ROCS_RefTverskyCombo>
1.12

> <ROCS_FitTversky>
0.885

> <ROCS_FitColorTversky>
0.403

> <ROCS_FitTverskyCombo>
1.289

> <ROCS_ColorScore>
-3.662

> <ROCS_Overlap>
980.047

> <ROCS_Rank>
54

> <EON_Rank>
714

> <i_qp_#stars>
0

> <i_qp_#amine>
1

> <i_qp_#amidine>
0

> <i_qp_#acid>
0

> <i_qp_#amide>
0

> <i_qp_#rotor>
3

> <i_qp_#rtvFG>
1

> <i_qp_CNS>
2

> <r_qp_mol_MW>
329.37

> <r_qp_dipole>
2.74738

> <r_qp_SASA>
552.945

> <r_qp_FOSA>
231.92

> <r_qp_FISA>
28.1009

> <r_qp_PISA>
246.311

> <r_qp_WPSA>
46.6139

> <r_qp_volume>
992.881

> <r_qp_donorHB>
1

> <r_qp_accptHB>
3.75

> <r_qp_dip^2/V>
0.00760223

> <r_qp_ACxDN^.5/SA>
0.00678187

> <r_qp_glob>
0.870458

> <r_qp_QPpolrz>
34.0071

> <r_qp_QPlogPC16>
9.36776

> <r_qp_QPlogPoct>
14.544

> <r_qp_QPlogPw>
7.42931

> <r_qp_QPlogPo/w>
3.69213

> <r_qp_QPlogS>
-3.50362

> <r_qp_CIQPlogS>
-4.22345

> <r_qp_QPlogHERG>
-5.52894

> <r_qp_QPPCaco>
1337.58

> <r_qp_QPlogBB>
0.648338

> <r_qp_QPPMDCK>
1349.33

> <r_qp_QPlogKp>
-2.94429

> <r_qp_IP(eV)>
8.87119

> <r_qp_EA(eV)>
0.0128875

> <i_qp_#metab>
2

> <r_qp_QPlogKhsa>
0.479194

> <i_qp_HumanOralAbsorption>
3

> <r_qp_PercentHumanOralAbsorption>
100

> <r_qp_SAfluorine>
46.6139

> <r_qp_SAamideO>
0

> <r_qp_PSA>
40.6805

> <i_qp_#NandO>
4

> <i_qp_RuleOfFive>
0

> <i_qp_RuleOfThree>
0

> <i_qp_#ringatoms>
21

> <i_qp_#in34>
0

> <i_qp_#in56>
21

> <i_qp_#noncon>
6

> <i_qp_#nonHatm>
24

> <r_qp_Jm>
0.117429

> <stars>
0

> <logP>
3.69213

> <Caco>
1337.58

> <MDCK>
1349.33

> <HumanOralAbsorption>
3

> <PercentHumanOralAbsorption>
100.0

> <RuleOfFive>
0

> <base>
fda.sdf

$$$$
S5239 Paroxetine mesylate.cdx_18
                    3D
 Schrodinger Suite 2022-3.
 45 48  0  0  1  0            999 V2000
   -5.1908   -8.9807   36.8300 C   0  0  0  0  0  0
   -4.8080  -11.2900   37.4284 C   0  0  0  0  0  0
   -9.4648   -5.3884   37.1677 C   0  0  0  0  0  0
   -8.8145   -6.4606   37.7833 C   0  0  0  0  0  0
   -5.0110   -9.2998   35.4841 C   0  0  0  0  0  0
   -4.6283  -11.6090   36.0825 C   0  0  0  0  0  0
   -7.2796   -4.9405   38.9066 C   0  0  0  0  0  0
   -5.0892   -9.9759   37.8022 C   0  0  0  0  0  0
   -9.0021   -4.1173   37.4400 C   0  0  0  0  0  0
   -7.9390   -3.8993   38.2861 C   0  0  0  0  0  0
   -7.7282   -6.2380   38.6479 C   0  0  0  0  0  0
   -4.7298  -10.6138   35.1103 C   0  0  0  0  0  0
   -4.4467  -10.5741   40.1541 C   0  0  0  0  0  0
   -4.6103  -10.2601   41.6321 C   0  0  0  0  0  0
   -6.8930   -9.3371   41.2147 C   0  0  0  0  0  0
   -8.6428   -1.9868   37.5590 C   0  0  0  0  0  0
   -5.2859   -9.6289   39.2698 C   0  0  2  0  0  0
   -6.7747   -9.6264   39.7140 C   0  0  2  0  0  0
   -7.6037   -8.5947   38.9411 C   0  0  0  0  0  0
   -6.0587  -10.3077   41.9806 N   0  3  0  0  0  0
   -9.5075   -2.9587   36.9360 O   0  0  0  0  0  0
   -7.6453   -2.5770   38.4176 O   0  0  0  0  0  0
   -7.1034   -7.3074   39.2428 O   0  0  0  0  0  0
   -4.5598  -10.9208   33.8176 F   0  0  0  0  0  0
   -5.4088   -7.9540   37.1116 H   0  0  0  0  0  0
   -4.7273  -12.0720   38.1789 H   0  0  0  0  0  0
  -10.3027   -5.5557   36.5007 H   0  0  0  0  0  0
   -9.1549   -7.4747   37.5895 H   0  0  0  0  0  0
   -5.0908   -8.5253   34.7271 H   0  0  0  0  0  0
   -4.4089  -12.6318   35.7911 H   0  0  0  0  0  0
   -6.4427   -4.7584   39.5718 H   0  0  0  0  0  0
   -3.3861  -10.4987   39.8831 H   0  0  0  0  0  0
   -4.7396  -11.6171   39.9709 H   0  0  0  0  0  0
   -4.1059  -11.0018   42.2583 H   0  0  0  0  0  0
   -4.2426   -9.2607   41.8868 H   0  0  0  0  0  0
   -6.5433   -8.3320   41.4755 H   0  0  0  0  0  0
   -7.9214   -9.4603   41.5691 H   0  0  0  0  0  0
   -8.1356   -1.4140   36.7741 H   0  0  0  0  0  0
   -9.2569   -1.3012   38.1541 H   0  0  0  0  0  0
   -4.8792   -8.5942   39.4010 H   0  0  0  0  0  0
   -7.2069  -10.6176   39.5172 H   0  0  0  0  0  0
   -8.6458   -8.6617   39.2456 H   0  0  0  0  0  0
   -7.5141   -8.7800   37.8731 H   0  0  0  0  0  0
   -6.3976  -11.2301   41.7953 H   0  0  0  0  0  0
   -6.1555  -10.1065   42.9554 H   0  0  0  0  0  0
  1  5  2  0  0  0
  1  8  1  0  0  0
  1 25  1  0  0  0
  2  6  1  0  0  0
  2  8  2  0  0  0
  2 26  1  0  0  0
  3  4  2  0  0  0
  3  9  1  0  0  0
  3 27  1  0  0  0
  4 11  1  0  0  0
  4 28  1  0  0  0
  5 12  1  0  0  0
  5 29  1  0  0  0
  6 12  2  0  0  0
  6 30  1  0  0  0
  7 10  1  0  0  0
  7 11  2  0  0  0
  7 31  1  0  0  0
  8 17  1  0  0  0
  9 10  2  0  0  0
  9 21  1  0  0  0
 10 22  1  0  0  0
 11 23  1  0  0  0
 12 24  1  0  0  0
 13 14  1  0  0  0
 13 17  1  0  0  0
 13 32  1  0  0  0
 13 33  1  0  0  0
 14 20  1  0  0  0
 14 34  1  0  0  0
 14 35  1  0  0  0
 15 18  1  0  0  0
 15 20  1  0  0  0
 15 36  1  0  0  0
 15 37  1  0  0  0
 16 21  1  0  0  0
 16 22  1  0  0  0
 16 38  1  0  0  0
 16 39  1  0  0  0
 17 18  1  0  0  0
 17 40  1  0  0  0
 18 19  1  0  0  0
 18 41  1  0  0  0
 19 23  1  0  0  0
 19 42  1  0  0  0
 19 43  1  0  0  0
 20 44  1  0  0  0
 20 45  1  0  0  0
M  CHG  1  20   1
M  END
> <EON_Query>
60c

> <EON_ET_pb>
0.053

> <EON_ET_coul>
0.023

> <EON_ET_combo>
0.596

> <EON_ShapeTanimoto>
0.543

> <ROCS_ShapeQuery>
60c

> <ROCS_TanimotoCombo>
0.924

> <ROCS_ShapeTanimoto>
0.686

> <ROCS_ColorTanimoto>
0.238

> <ROCS_RefTversky>
0.753

> <ROCS_RefColorTversky>
0.368

> <ROCS_RefTverskyCombo>
1.12

> <ROCS_FitTversky>
0.885

> <ROCS_FitColorTversky>
0.403

> <ROCS_FitTverskyCombo>
1.289

> <ROCS_ColorScore>
-3.662

> <ROCS_Overlap>
980.047

> <ROCS_Rank>
55

> <EON_Rank>
715

> <i_qp_#stars>
0

> <i_qp_#amine>
1

> <i_qp_#amidine>
0

> <i_qp_#acid>
0

> <i_qp_#amide>
0

> <i_qp_#rotor>
3

> <i_qp_#rtvFG>
1

> <i_qp_CNS>
2

> <r_qp_mol_MW>
329.37

> <r_qp_dipole>
2.74738

> <r_qp_SASA>
552.945

> <r_qp_FOSA>
231.92

> <r_qp_FISA>
28.1009

> <r_qp_PISA>
246.311

> <r_qp_WPSA>
46.6139

> <r_qp_volume>
992.881

> <r_qp_donorHB>
1

> <r_qp_accptHB>
3.75

> <r_qp_dip^2/V>
0.00760223

> <r_qp_ACxDN^.5/SA>
0.00678187

> <r_qp_glob>
0.870458

> <r_qp_QPpolrz>
34.0071

> <r_qp_QPlogPC16>
9.36776

> <r_qp_QPlogPoct>
14.544

> <r_qp_QPlogPw>
7.42931

> <r_qp_QPlogPo/w>
3.69213

> <r_qp_QPlogS>
-3.50362

> <r_qp_CIQPlogS>
-4.22345

> <r_qp_QPlogHERG>
-5.52894

> <r_qp_QPPCaco>
1337.58

> <r_qp_QPlogBB>
0.648338

> <r_qp_QPPMDCK>
1349.33

> <r_qp_QPlogKp>
-2.94429

> <r_qp_IP(eV)>
8.87119

> <r_qp_EA(eV)>
0.0128875

> <i_qp_#metab>
2

> <r_qp_QPlogKhsa>
0.479194

> <i_qp_HumanOralAbsorption>
3

> <r_qp_PercentHumanOralAbsorption>
100

> <r_qp_SAfluorine>
46.6139

> <r_qp_SAamideO>
0

> <r_qp_PSA>
40.6805

> <i_qp_#NandO>
4

> <i_qp_RuleOfFive>
0

> <i_qp_RuleOfThree>
0

> <i_qp_#ringatoms>
21

> <i_qp_#in34>
0

> <i_qp_#in56>
21

> <i_qp_#noncon>
6

> <i_qp_#nonHatm>
24

> <r_qp_Jm>
0.117429

> <stars>
0

> <logP>
3.69213

> <Caco>
1337.58

> <MDCK>
1349.33

> <HumanOralAbsorption>
3

> <PercentHumanOralAbsorption>
100.0

> <RuleOfFive>
0

> <base>
fda.sdf

$$$$
Paroxetine_18
                    3D
 Schrodinger Suite 2022-3.
 45 48  0  0  1  0            999 V2000
   -5.1908   -8.9807   36.8300 C   0  0  0  0  0  0
   -4.8080  -11.2900   37.4284 C   0  0  0  0  0  0
   -9.4648   -5.3884   37.1677 C   0  0  0  0  0  0
   -8.8145   -6.4606   37.7833 C   0  0  0  0  0  0
   -5.0110   -9.2998   35.4841 C   0  0  0  0  0  0
   -4.6283  -11.6090   36.0825 C   0  0  0  0  0  0
   -7.2796   -4.9405   38.9066 C   0  0  0  0  0  0
   -5.0892   -9.9759   37.8022 C   0  0  0  0  0  0
   -9.0021   -4.1173   37.4400 C   0  0  0  0  0  0
   -7.9390   -3.8993   38.2861 C   0  0  0  0  0  0
   -7.7282   -6.2380   38.6479 C   0  0  0  0  0  0
   -4.7298  -10.6138   35.1103 C   0  0  0  0  0  0
   -4.4467  -10.5741   40.1541 C   0  0  0  0  0  0
   -4.6103  -10.2601   41.6321 C   0  0  0  0  0  0
   -6.8930   -9.3371   41.2147 C   0  0  0  0  0  0
   -8.6428   -1.9868   37.5590 C   0  0  0  0  0  0
   -5.2859   -9.6289   39.2698 C   0  0  2  0  0  0
   -6.7747   -9.6264   39.7140 C   0  0  2  0  0  0
   -7.6037   -8.5947   38.9411 C   0  0  0  0  0  0
   -6.0587  -10.3077   41.9806 N   0  3  0  0  0  0
   -9.5075   -2.9587   36.9360 O   0  0  0  0  0  0
   -7.6453   -2.5770   38.4176 O   0  0  0  0  0  0
   -7.1034   -7.3074   39.2428 O   0  0  0  0  0  0
   -4.5598  -10.9208   33.8176 F   0  0  0  0  0  0
   -5.4088   -7.9540   37.1116 H   0  0  0  0  0  0
   -4.7273  -12.0720   38.1789 H   0  0  0  0  0  0
  -10.3027   -5.5557   36.5007 H   0  0  0  0  0  0
   -9.1549   -7.4747   37.5895 H   0  0  0  0  0  0
   -5.0908   -8.5253   34.7271 H   0  0  0  0  0  0
   -4.4089  -12.6318   35.7911 H   0  0  0  0  0  0
   -6.4427   -4.7584   39.5718 H   0  0  0  0  0  0
   -3.3861  -10.4987   39.8831 H   0  0  0  0  0  0
   -4.7396  -11.6171   39.9709 H   0  0  0  0  0  0
   -4.1059  -11.0018   42.2583 H   0  0  0  0  0  0
   -4.2426   -9.2607   41.8868 H   0  0  0  0  0  0
   -6.5433   -8.3320   41.4755 H   0  0  0  0  0  0
   -7.9214   -9.4603   41.5691 H   0  0  0  0  0  0
   -8.1356   -1.4140   36.7741 H   0  0  0  0  0  0
   -9.2569   -1.3012   38.1541 H   0  0  0  0  0  0
   -4.8792   -8.5942   39.4010 H   0  0  0  0  0  0
   -7.2069  -10.6176   39.5172 H   0  0  0  0  0  0
   -8.6458   -8.6617   39.2456 H   0  0  0  0  0  0
   -7.5141   -8.7800   37.8731 H   0  0  0  0  0  0
   -6.3976  -11.2301   41.7953 H   0  0  0  0  0  0
   -6.1555  -10.1065   42.9554 H   0  0  0  0  0  0
  1  5  2  0  0  0
  1  8  1  0  0  0
  1 25  1  0  0  0
  2  6  1  0  0  0
  2  8  2  0  0  0
  2 26  1  0  0  0
  3  4  2  0  0  0
  3  9  1  0  0  0
  3 27  1  0  0  0
  4 11  1  0  0  0
  4 28  1  0  0  0
  5 12  1  0  0  0
  5 29  1  0  0  0
  6 12  2  0  0  0
  6 30  1  0  0  0
  7 10  1  0  0  0
  7 11  2  0  0  0
  7 31  1  0  0  0
  8 17  1  0  0  0
  9 10  2  0  0  0
  9 21  1  0  0  0
 10 22  1  0  0  0
 11 23  1  0  0  0
 12 24  1  0  0  0
 13 14  1  0  0  0
 13 17  1  0  0  0
 13 32  1  0  0  0
 13 33  1  0  0  0
 14 20  1  0  0  0
 14 34  1  0  0  0
 14 35  1  0  0  0
 15 18  1  0  0  0
 15 20  1  0  0  0
 15 36  1  0  0  0
 15 37  1  0  0  0
 16 21  1  0  0  0
 16 22  1  0  0  0
 16 38  1  0  0  0
 16 39  1  0  0  0
 17 18  1  0  0  0
 17 40  1  0  0  0
 18 19  1  0  0  0
 18 41  1  0  0  0
 19 23  1  0  0  0
 19 42  1  0  0  0
 19 43  1  0  0  0
 20 44  1  0  0  0
 20 45  1  0  0  0
M  CHG  1  20   1
M  END
> <EON_Query>
60c

> <EON_ET_pb>
0.053

> <EON_ET_coul>
0.023

> <EON_ET_combo>
0.596

> <EON_ShapeTanimoto>
0.543

> <ROCS_ShapeQuery>
60c

> <ROCS_TanimotoCombo>
0.924

> <ROCS_ShapeTanimoto>
0.686

> <ROCS_ColorTanimoto>
0.238

> <ROCS_RefTversky>
0.753

> <ROCS_RefColorTversky>
0.368

> <ROCS_RefTverskyCombo>
1.12

> <ROCS_FitTversky>
0.885

> <ROCS_FitColorTversky>
0.403

> <ROCS_FitTverskyCombo>
1.289

> <ROCS_ColorScore>
-3.662

> <ROCS_Overlap>
980.047

> <ROCS_Rank>
56

> <EON_Rank>
716

> <i_qp_#stars>
0

> <i_qp_#amine>
1

> <i_qp_#amidine>
0

> <i_qp_#acid>
0

> <i_qp_#amide>
0

> <i_qp_#rotor>
3

> <i_qp_#rtvFG>
1

> <i_qp_CNS>
2

> <r_qp_mol_MW>
329.37

> <r_qp_dipole>
2.74738

> <r_qp_SASA>
552.945

> <r_qp_FOSA>
231.92

> <r_qp_FISA>
28.1009

> <r_qp_PISA>
246.311

> <r_qp_WPSA>
46.6139

> <r_qp_volume>
992.881

> <r_qp_donorHB>
1

> <r_qp_accptHB>
3.75

> <r_qp_dip^2/V>
0.00760223

> <r_qp_ACxDN^.5/SA>
0.00678187

> <r_qp_glob>
0.870458

> <r_qp_QPpolrz>
34.0071

> <r_qp_QPlogPC16>
9.36776

> <r_qp_QPlogPoct>
14.544

> <r_qp_QPlogPw>
7.42931

> <r_qp_QPlogPo/w>
3.69213

> <r_qp_QPlogS>
-3.50362

> <r_qp_CIQPlogS>
-4.22345

> <r_qp_QPlogHERG>
-5.52894

> <r_qp_QPPCaco>
1337.58

> <r_qp_QPlogBB>
0.648338

> <r_qp_QPPMDCK>
1349.33

> <r_qp_QPlogKp>
-2.94429

> <r_qp_IP(eV)>
8.87119

> <r_qp_EA(eV)>
0.0128875

> <i_qp_#metab>
2

> <r_qp_QPlogKhsa>
0.479194

> <i_qp_HumanOralAbsorption>
3

> <r_qp_PercentHumanOralAbsorption>
100

> <r_qp_SAfluorine>
46.6139

> <r_qp_SAamideO>
0

> <r_qp_PSA>
40.6805

> <i_qp_#NandO>
4

> <i_qp_RuleOfFive>
0

> <i_qp_RuleOfThree>
0

> <i_qp_#ringatoms>
21

> <i_qp_#in34>
0

> <i_qp_#in56>
21

> <i_qp_#noncon>
6

> <i_qp_#nonHatm>
24

> <r_qp_Jm>
0.117429

> <stars>
0

> <logP>
3.69213

> <Caco>
1337.58

> <MDCK>
1349.33

> <HumanOralAbsorption>
3

> <PercentHumanOralAbsorption>
100.0

> <RuleOfFive>
0

> <base>
fda.sdf

$$$$
Molecule_18
                    3D
 Schrodinger Suite 2022-3.
 45 48  0  0  1  0            999 V2000
   -5.1908   -8.9807   36.8300 C   0  0  0  0  0  0
   -4.8080  -11.2900   37.4284 C   0  0  0  0  0  0
   -9.4648   -5.3884   37.1677 C   0  0  0  0  0  0
   -8.8145   -6.4606   37.7833 C   0  0  0  0  0  0
   -5.0110   -9.2998   35.4841 C   0  0  0  0  0  0
   -4.6283  -11.6090   36.0825 C   0  0  0  0  0  0
   -7.2796   -4.9405   38.9066 C   0  0  0  0  0  0
   -5.0892   -9.9759   37.8022 C   0  0  0  0  0  0
   -9.0021   -4.1173   37.4400 C   0  0  0  0  0  0
   -7.9390   -3.8993   38.2861 C   0  0  0  0  0  0
   -7.7282   -6.2380   38.6479 C   0  0  0  0  0  0
   -4.7298  -10.6138   35.1103 C   0  0  0  0  0  0
   -4.4467  -10.5741   40.1541 C   0  0  0  0  0  0
   -4.6103  -10.2601   41.6321 C   0  0  0  0  0  0
   -6.8930   -9.3371   41.2147 C   0  0  0  0  0  0
   -8.6428   -1.9868   37.5590 C   0  0  0  0  0  0
   -5.2859   -9.6289   39.2698 C   0  0  2  0  0  0
   -6.7747   -9.6264   39.7140 C   0  0  2  0  0  0
   -7.6037   -8.5947   38.9411 C   0  0  0  0  0  0
   -6.0587  -10.3077   41.9806 N   0  3  0  0  0  0
   -9.5075   -2.9587   36.9360 O   0  0  0  0  0  0
   -7.6453   -2.5770   38.4176 O   0  0  0  0  0  0
   -7.1034   -7.3074   39.2428 O   0  0  0  0  0  0
   -4.5598  -10.9208   33.8176 F   0  0  0  0  0  0
   -5.4088   -7.9540   37.1116 H   0  0  0  0  0  0
   -4.7273  -12.0720   38.1789 H   0  0  0  0  0  0
  -10.3027   -5.5557   36.5007 H   0  0  0  0  0  0
   -9.1549   -7.4747   37.5895 H   0  0  0  0  0  0
   -5.0908   -8.5253   34.7271 H   0  0  0  0  0  0
   -4.4089  -12.6318   35.7911 H   0  0  0  0  0  0
   -6.4427   -4.7584   39.5718 H   0  0  0  0  0  0
   -3.3861  -10.4987   39.8831 H   0  0  0  0  0  0
   -4.7396  -11.6171   39.9709 H   0  0  0  0  0  0
   -4.1059  -11.0018   42.2583 H   0  0  0  0  0  0
   -4.2426   -9.2607   41.8868 H   0  0  0  0  0  0
   -6.5433   -8.3320   41.4755 H   0  0  0  0  0  0
   -7.9214   -9.4603   41.5691 H   0  0  0  0  0  0
   -8.1356   -1.4140   36.7741 H   0  0  0  0  0  0
   -9.2569   -1.3012   38.1541 H   0  0  0  0  0  0
   -4.8792   -8.5942   39.4010 H   0  0  0  0  0  0
   -7.2069  -10.6176   39.5172 H   0  0  0  0  0  0
   -8.6458   -8.6617   39.2456 H   0  0  0  0  0  0
   -7.5141   -8.7800   37.8731 H   0  0  0  0  0  0
   -6.3976  -11.2301   41.7953 H   0  0  0  0  0  0
   -6.1555  -10.1065   42.9554 H   0  0  0  0  0  0
  1  5  2  0  0  0
  1  8  1  0  0  0
  1 25  1  0  0  0
  2  6  1  0  0  0
  2  8  2  0  0  0
  2 26  1  0  0  0
  3  4  2  0  0  0
  3  9  1  0  0  0
  3 27  1  0  0  0
  4 11  1  0  0  0
  4 28  1  0  0  0
  5 12  1  0  0  0
  5 29  1  0  0  0
  6 12  2  0  0  0
  6 30  1  0  0  0
  7 10  1  0  0  0
  7 11  2  0  0  0
  7 31  1  0  0  0
  8 17  1  0  0  0
  9 10  2  0  0  0
  9 21  1  0  0  0
 10 22  1  0  0  0
 11 23  1  0  0  0
 12 24  1  0  0  0
 13 14  1  0  0  0
 13 17  1  0  0  0
 13 32  1  0  0  0
 13 33  1  0  0  0
 14 20  1  0  0  0
 14 34  1  0  0  0
 14 35  1  0  0  0
 15 18  1  0  0  0
 15 20  1  0  0  0
 15 36  1  0  0  0
 15 37  1  0  0  0
 16 21  1  0  0  0
 16 22  1  0  0  0
 16 38  1  0  0  0
 16 39  1  0  0  0
 17 18  1  0  0  0
 17 40  1  0  0  0
 18 19  1  0  0  0
 18 41  1  0  0  0
 19 23  1  0  0  0
 19 42  1  0  0  0
 19 43  1  0  0  0
 20 44  1  0  0  0
 20 45  1  0  0  0
M  CHG  1  20   1
M  END
> <EON_Query>
60c

> <EON_ET_pb>
0.053

> <EON_ET_coul>
0.023

> <EON_ET_combo>
0.596

> <EON_ShapeTanimoto>
0.543

> <ROCS_ShapeQuery>
60c

> <ROCS_TanimotoCombo>
0.924

> <ROCS_ShapeTanimoto>
0.686

> <ROCS_ColorTanimoto>
0.238

> <ROCS_RefTversky>
0.753

> <ROCS_RefColorTversky>
0.368

> <ROCS_RefTverskyCombo>
1.12

> <ROCS_FitTversky>
0.885

> <ROCS_FitColorTversky>
0.403

> <ROCS_FitTverskyCombo>
1.289

> <ROCS_ColorScore>
-3.662

> <ROCS_Overlap>
980.047

> <ROCS_Rank>
57

> <EON_Rank>
717

> <i_qp_#stars>
0

> <i_qp_#amine>
1

> <i_qp_#amidine>
0

> <i_qp_#acid>
0

> <i_qp_#amide>
0

> <i_qp_#rotor>
3

> <i_qp_#rtvFG>
1

> <i_qp_CNS>
2

> <r_qp_mol_MW>
329.37

> <r_qp_dipole>
2.74738

> <r_qp_SASA>
552.945

> <r_qp_FOSA>
231.92

> <r_qp_FISA>
28.1009

> <r_qp_PISA>
246.311

> <r_qp_WPSA>
46.6139

> <r_qp_volume>
992.881

> <r_qp_donorHB>
1

> <r_qp_accptHB>
3.75

> <r_qp_dip^2/V>
0.00760223

> <r_qp_ACxDN^.5/SA>
0.00678187

> <r_qp_glob>
0.870458

> <r_qp_QPpolrz>
34.0071

> <r_qp_QPlogPC16>
9.36776

> <r_qp_QPlogPoct>
14.544

> <r_qp_QPlogPw>
7.42931

> <r_qp_QPlogPo/w>
3.69213

> <r_qp_QPlogS>
-3.50362

> <r_qp_CIQPlogS>
-4.22345

> <r_qp_QPlogHERG>
-5.52894

> <r_qp_QPPCaco>
1337.58

> <r_qp_QPlogBB>
0.648338

> <r_qp_QPPMDCK>
1349.33

> <r_qp_QPlogKp>
-2.94429

> <r_qp_IP(eV)>
8.87119

> <r_qp_EA(eV)>
0.0128875

> <i_qp_#metab>
2

> <r_qp_QPlogKhsa>
0.479194

> <i_qp_HumanOralAbsorption>
3

> <r_qp_PercentHumanOralAbsorption>
100

> <r_qp_SAfluorine>
46.6139

> <r_qp_SAamideO>
0

> <r_qp_PSA>
40.6805

> <i_qp_#NandO>
4

> <i_qp_RuleOfFive>
0

> <i_qp_RuleOfThree>
0

> <i_qp_#ringatoms>
21

> <i_qp_#in34>
0

> <i_qp_#in56>
21

> <i_qp_#noncon>
6

> <i_qp_#nonHatm>
24

> <r_qp_Jm>
0.117429

> <stars>
0

> <logP>
3.69213

> <Caco>
1337.58

> <MDCK>
1349.33

> <HumanOralAbsorption>
3

> <PercentHumanOralAbsorption>
100.0

> <RuleOfFive>
0

> <base>
fda.sdf

$$$$
Molecule_1
                    3D
 Schrodinger Suite 2022-3.
 47 51  0  0  1  0            999 V2000
   -6.9053   -6.1713   41.7361 C   0  0  0  0  0  0
   -6.4750   -7.2458   40.9609 C   0  0  0  0  0  0
   -7.5524   -5.0916   41.1379 C   0  0  0  0  0  0
   -6.6941   -7.2413   39.5789 C   0  0  0  0  0  0
   -7.7669   -5.0660   39.7525 C   0  0  0  0  0  0
   -7.3386   -6.1531   38.9668 C   0  0  0  0  0  0
   -6.2329   -8.3994   38.7660 C   0  0  0  0  0  0
   -8.5217   -3.9047   39.1540 C   0  0  0  0  0  0
   -8.4176   -3.8217   37.6326 C   0  0  0  0  0  0
   -8.6162   -5.1965   37.0042 C   0  0  0  0  0  0
   -3.8827   -9.2694   36.6748 C   0  0  0  0  0  0
   -4.9385  -10.5083   34.7990 C   0  0  0  0  0  0
   -7.7558   -7.5650   36.9741 C   0  0  0  0  0  0
   -3.7300  -10.5745   37.4556 C   0  0  0  0  0  0
   -4.8034  -11.8174   35.5803 C   0  0  0  0  0  0
   -6.2000  -10.8906   37.4326 C   0  0  0  0  0  0
   -7.5032   -6.1437   37.4662 C   0  0  2  0  0  0
   -5.1258   -9.3240   35.7661 C   0  0  1  0  0  0
   -6.3881   -9.6102   36.6100 C   0  0  2  0  0  0
   -6.7293   -8.4818   37.4624 N   0  0  0  0  0  0
   -4.8610  -11.5004   37.0615 N   0  3  2  0  0  0
   -5.4564   -9.2079   39.2701 O   0  0  0  0  0  0
   -6.7421   -6.1780   42.8100 H   0  0  0  0  0  0
   -5.9790   -8.0783   41.4524 H   0  0  0  0  0  0
   -7.8939   -4.2681   41.7604 H   0  0  0  0  0  0
   -9.5776   -4.0104   39.4343 H   0  0  0  0  0  0
   -8.1592   -2.9633   39.5838 H   0  0  0  0  0  0
   -9.1655   -3.1180   37.2503 H   0  0  0  0  0  0
   -7.4334   -3.4279   37.3487 H   0  0  0  0  0  0
   -9.6029   -5.5888   37.2829 H   0  0  0  0  0  0
   -8.6008   -5.1099   35.9115 H   0  0  0  0  0  0
   -3.9512   -8.4268   37.3729 H   0  0  0  0  0  0
   -2.9821   -9.0929   36.0741 H   0  0  0  0  0  0
   -4.0481  -10.3552   34.1772 H   0  0  0  0  0  0
   -5.7873  -10.5761   34.1083 H   0  0  0  0  0  0
   -8.7215   -7.9475   37.3279 H   0  0  0  0  0  0
   -7.7605   -7.5852   35.8780 H   0  0  0  0  0  0
   -2.7902  -11.0869   37.2256 H   0  0  0  0  0  0
   -3.7932  -10.4191   38.5377 H   0  0  0  0  0  0
   -5.6186  -12.5151   35.3622 H   0  0  0  0  0  0
   -3.8479  -12.3161   35.3879 H   0  0  0  0  0  0
   -6.1907  -10.7245   38.5157 H   0  0  0  0  0  0
   -6.9658  -11.6384   37.2001 H   0  0  0  0  0  0
   -6.5500   -5.7890   37.0479 H   0  0  0  0  0  0
   -5.2274   -8.3870   35.2073 H   0  0  0  0  0  0
   -7.2511   -9.7359   35.9448 H   0  0  0  0  0  0
   -4.7562  -12.3559   37.5686 H   0  0  0  0  0  0
  1  2  2  0  0  0
  1  3  1  0  0  0
  1 23  1  0  0  0
  2  4  1  0  0  0
  2 24  1  0  0  0
  3  5  2  0  0  0
  3 25  1  0  0  0
  4  6  2  0  0  0
  4  7  1  0  0  0
  5  6  1  0  0  0
  5  8  1  0  0  0
  6 17  1  0  0  0
  7 20  1  0  0  0
  7 22  2  0  0  0
  8  9  1  0  0  0
  8 26  1  0  0  0
  8 27  1  0  0  0
  9 10  1  0  0  0
  9 28  1  0  0  0
  9 29  1  0  0  0
 10 17  1  0  0  0
 10 30  1  0  0  0
 10 31  1  0  0  0
 11 14  1  0  0  0
 11 18  1  0  0  0
 11 32  1  0  0  0
 11 33  1  0  0  0
 12 15  1  0  0  0
 12 18  1  0  0  0
 12 34  1  0  0  0
 12 35  1  0  0  0
 13 17  1  0  0  0
 13 20  1  0  0  0
 13 36  1  0  0  0
 13 37  1  0  0  0
 14 21  1  0  0  0
 14 38  1  0  0  0
 14 39  1  0  0  0
 15 21  1  0  0  0
 15 40  1  0  0  0
 15 41  1  0  0  0
 16 19  1  0  0  0
 16 21  1  0  0  0
 16 42  1  0  0  0
 16 43  1  0  0  0
 17 44  1  0  0  0
 18 19  1  0  0  0
 18 45  1  0  0  0
 19 20  1  0  0  0
 19 46  1  0  0  0
 21 47  1  0  0  0
M  CHG  1  21   1
M  END
> <EON_Query>
60c

> <EON_ET_pb>
0.083

> <EON_ET_coul>
0.07

> <EON_ET_combo>
0.594

> <EON_ShapeTanimoto>
0.512

> <ROCS_ShapeQuery>
60c

> <ROCS_TanimotoCombo>
0.77

> <ROCS_ShapeTanimoto>
0.573

> <ROCS_ColorTanimoto>
0.197

> <ROCS_RefTversky>
0.654

> <ROCS_RefColorTversky>
0.359

> <ROCS_RefTverskyCombo>
1.013

> <ROCS_FitTversky>
0.822

> <ROCS_FitColorTversky>
0.305

> <ROCS_FitTverskyCombo>
1.127

> <ROCS_ColorScore>
-3.63

> <ROCS_Overlap>
848.546

> <ROCS_Rank>
914

> <EON_Rank>
729

> <i_qp_#stars>
0

> <i_qp_#amine>
1

> <i_qp_#amidine>
0

> <i_qp_#acid>
0

> <i_qp_#amide>
0

> <i_qp_#rotor>
0

> <i_qp_#rtvFG>
0

> <i_qp_CNS>
2

> <r_qp_mol_MW>
296.411

> <r_qp_dipole>
5.68999

> <r_qp_SASA>
515.997

> <r_qp_FOSA>
373.217

> <r_qp_FISA>
20.9182

> <r_qp_PISA>
121.861

> <r_qp_WPSA>
0

> <r_qp_volume>
950.421

> <r_qp_donorHB>
0

> <r_qp_accptHB>
5

> <r_qp_dip^2/V>
0.0340649

> <r_qp_ACxDN^.5/SA>
0

> <r_qp_glob>
0.906002

> <r_qp_QPpolrz>
33.0456

> <r_qp_QPlogPC16>
8.28972

> <r_qp_QPlogPoct>
13.5143

> <r_qp_QPlogPw>
6.85709

> <r_qp_QPlogPo/w>
2.53157

> <r_qp_QPlogS>
-2.15783

> <r_qp_CIQPlogS>
-2.48166

> <r_qp_QPlogHERG>
-4.36031

> <r_qp_QPPCaco>
1564.71

> <r_qp_QPlogBB>
0.792099

> <r_qp_QPPMDCK>
887.95

> <r_qp_QPlogKp>
-3.53834

> <r_qp_IP(eV)>
8.86362

> <r_qp_EA(eV)>
0.307811

> <i_qp_#metab>
3

> <r_qp_QPlogKhsa>
0.039572

> <i_qp_HumanOralAbsorption>
3

> <r_qp_PercentHumanOralAbsorption>
100

> <r_qp_SAfluorine>
0

> <r_qp_SAamideO>
0

> <r_qp_PSA>
25.7835

> <i_qp_#NandO>
3

> <i_qp_RuleOfFive>
0

> <i_qp_RuleOfThree>
0

> <i_qp_#ringatoms>
21

> <i_qp_#in34>
0

> <i_qp_#in56>
21

> <i_qp_#noncon>
12

> <i_qp_#nonHatm>
22

> <r_qp_Jm>
0.59665

> <stars>
0

> <logP>
2.53157

> <Caco>
1564.71

> <MDCK>
887.95

> <HumanOralAbsorption>
3

> <PercentHumanOralAbsorption>
100.0

> <RuleOfFive>
0

> <base>
fda.sdf

$$$$
Palonosetron HCl.cdx_1
                    3D
 Schrodinger Suite 2022-3.
 47 51  0  0  1  0            999 V2000
   -6.9053   -6.1713   41.7361 C   0  0  0  0  0  0
   -6.4750   -7.2458   40.9609 C   0  0  0  0  0  0
   -7.5524   -5.0916   41.1379 C   0  0  0  0  0  0
   -6.6941   -7.2413   39.5789 C   0  0  0  0  0  0
   -7.7669   -5.0660   39.7525 C   0  0  0  0  0  0
   -7.3386   -6.1531   38.9668 C   0  0  0  0  0  0
   -6.2329   -8.3994   38.7660 C   0  0  0  0  0  0
   -8.5217   -3.9047   39.1540 C   0  0  0  0  0  0
   -8.4176   -3.8217   37.6326 C   0  0  0  0  0  0
   -8.6162   -5.1965   37.0042 C   0  0  0  0  0  0
   -3.8827   -9.2694   36.6748 C   0  0  0  0  0  0
   -4.9385  -10.5083   34.7990 C   0  0  0  0  0  0
   -7.7558   -7.5650   36.9741 C   0  0  0  0  0  0
   -3.7300  -10.5745   37.4556 C   0  0  0  0  0  0
   -4.8034  -11.8174   35.5803 C   0  0  0  0  0  0
   -6.2000  -10.8906   37.4326 C   0  0  0  0  0  0
   -7.5032   -6.1437   37.4662 C   0  0  2  0  0  0
   -5.1258   -9.3240   35.7661 C   0  0  1  0  0  0
   -6.3881   -9.6102   36.6100 C   0  0  2  0  0  0
   -6.7293   -8.4818   37.4624 N   0  0  0  0  0  0
   -4.8610  -11.5004   37.0615 N   0  3  2  0  0  0
   -5.4564   -9.2079   39.2701 O   0  0  0  0  0  0
   -6.7421   -6.1780   42.8100 H   0  0  0  0  0  0
   -5.9790   -8.0783   41.4524 H   0  0  0  0  0  0
   -7.8939   -4.2681   41.7604 H   0  0  0  0  0  0
   -9.5776   -4.0104   39.4343 H   0  0  0  0  0  0
   -8.1592   -2.9633   39.5838 H   0  0  0  0  0  0
   -9.1655   -3.1180   37.2503 H   0  0  0  0  0  0
   -7.4334   -3.4279   37.3487 H   0  0  0  0  0  0
   -9.6029   -5.5888   37.2829 H   0  0  0  0  0  0
   -8.6008   -5.1099   35.9115 H   0  0  0  0  0  0
   -3.9512   -8.4268   37.3729 H   0  0  0  0  0  0
   -2.9821   -9.0929   36.0741 H   0  0  0  0  0  0
   -4.0481  -10.3552   34.1772 H   0  0  0  0  0  0
   -5.7873  -10.5761   34.1083 H   0  0  0  0  0  0
   -8.7215   -7.9475   37.3279 H   0  0  0  0  0  0
   -7.7605   -7.5852   35.8780 H   0  0  0  0  0  0
   -2.7902  -11.0869   37.2256 H   0  0  0  0  0  0
   -3.7932  -10.4191   38.5377 H   0  0  0  0  0  0
   -5.6186  -12.5151   35.3622 H   0  0  0  0  0  0
   -3.8479  -12.3161   35.3879 H   0  0  0  0  0  0
   -6.1907  -10.7245   38.5157 H   0  0  0  0  0  0
   -6.9658  -11.6384   37.2001 H   0  0  0  0  0  0
   -6.5500   -5.7890   37.0479 H   0  0  0  0  0  0
   -5.2274   -8.3870   35.2073 H   0  0  0  0  0  0
   -7.2511   -9.7359   35.9448 H   0  0  0  0  0  0
   -4.7562  -12.3559   37.5686 H   0  0  0  0  0  0
  1  2  2  0  0  0
  1  3  1  0  0  0
  1 23  1  0  0  0
  2  4  1  0  0  0
  2 24  1  0  0  0
  3  5  2  0  0  0
  3 25  1  0  0  0
  4  6  2  0  0  0
  4  7  1  0  0  0
  5  6  1  0  0  0
  5  8  1  0  0  0
  6 17  1  0  0  0
  7 20  1  0  0  0
  7 22  2  0  0  0
  8  9  1  0  0  0
  8 26  1  0  0  0
  8 27  1  0  0  0
  9 10  1  0  0  0
  9 28  1  0  0  0
  9 29  1  0  0  0
 10 17  1  0  0  0
 10 30  1  0  0  0
 10 31  1  0  0  0
 11 14  1  0  0  0
 11 18  1  0  0  0
 11 32  1  0  0  0
 11 33  1  0  0  0
 12 15  1  0  0  0
 12 18  1  0  0  0
 12 34  1  0  0  0
 12 35  1  0  0  0
 13 17  1  0  0  0
 13 20  1  0  0  0
 13 36  1  0  0  0
 13 37  1  0  0  0
 14 21  1  0  0  0
 14 38  1  0  0  0
 14 39  1  0  0  0
 15 21  1  0  0  0
 15 40  1  0  0  0
 15 41  1  0  0  0
 16 19  1  0  0  0
 16 21  1  0  0  0
 16 42  1  0  0  0
 16 43  1  0  0  0
 17 44  1  0  0  0
 18 19  1  0  0  0
 18 45  1  0  0  0
 19 20  1  0  0  0
 19 46  1  0  0  0
 21 47  1  0  0  0
M  CHG  1  21   1
M  END
> <EON_Query>
60c

> <EON_ET_pb>
0.083

> <EON_ET_coul>
0.07

> <EON_ET_combo>
0.594

> <EON_ShapeTanimoto>
0.512

> <ROCS_ShapeQuery>
60c

> <ROCS_TanimotoCombo>
0.77

> <ROCS_ShapeTanimoto>
0.573

> <ROCS_ColorTanimoto>
0.197

> <ROCS_RefTversky>
0.654

> <ROCS_RefColorTversky>
0.359

> <ROCS_RefTverskyCombo>
1.013

> <ROCS_FitTversky>
0.822

> <ROCS_FitColorTversky>
0.305

> <ROCS_FitTverskyCombo>
1.127

> <ROCS_ColorScore>
-3.63

> <ROCS_Overlap>
848.546

> <ROCS_Rank>
915

> <EON_Rank>
730

> <i_qp_#stars>
0

> <i_qp_#amine>
1

> <i_qp_#amidine>
0

> <i_qp_#acid>
0

> <i_qp_#amide>
0

> <i_qp_#rotor>
0

> <i_qp_#rtvFG>
0

> <i_qp_CNS>
2

> <r_qp_mol_MW>
296.411

> <r_qp_dipole>
5.68999

> <r_qp_SASA>
515.997

> <r_qp_FOSA>
373.217

> <r_qp_FISA>
20.9182

> <r_qp_PISA>
121.861

> <r_qp_WPSA>
0

> <r_qp_volume>
950.421

> <r_qp_donorHB>
0

> <r_qp_accptHB>
5

> <r_qp_dip^2/V>
0.0340649

> <r_qp_ACxDN^.5/SA>
0

> <r_qp_glob>
0.906002

> <r_qp_QPpolrz>
33.0456

> <r_qp_QPlogPC16>
8.28972

> <r_qp_QPlogPoct>
13.5143

> <r_qp_QPlogPw>
6.85709

> <r_qp_QPlogPo/w>
2.53157

> <r_qp_QPlogS>
-2.15783

> <r_qp_CIQPlogS>
-2.48166

> <r_qp_QPlogHERG>
-4.36031

> <r_qp_QPPCaco>
1564.71

> <r_qp_QPlogBB>
0.792099

> <r_qp_QPPMDCK>
887.95

> <r_qp_QPlogKp>
-3.53834

> <r_qp_IP(eV)>
8.86362

> <r_qp_EA(eV)>
0.307811

> <i_qp_#metab>
3

> <r_qp_QPlogKhsa>
0.039572

> <i_qp_HumanOralAbsorption>
3

> <r_qp_PercentHumanOralAbsorption>
100

> <r_qp_SAfluorine>
0

> <r_qp_SAamideO>
0

> <r_qp_PSA>
25.7835

> <i_qp_#NandO>
3

> <i_qp_RuleOfFive>
0

> <i_qp_RuleOfThree>
0

> <i_qp_#ringatoms>
21

> <i_qp_#in34>
0

> <i_qp_#in56>
21

> <i_qp_#noncon>
12

> <i_qp_#nonHatm>
22

> <r_qp_Jm>
0.59665

> <stars>
0

> <logP>
2.53157

> <Caco>
1564.71

> <MDCK>
887.95

> <HumanOralAbsorption>
3

> <PercentHumanOralAbsorption>
100.0

> <RuleOfFive>
0

> <base>
fda.sdf

$$$$
HALDOL (haloperidol).cdx_191
                    3D
 Schrodinger Suite 2022-3.
 50 52  0  0  1  0            999 V2000
   -8.3888   -5.4496   38.8706 C   0  0  0  0  0  0
   -7.5731   -3.1758   38.9121 C   0  0  0  0  0  0
   -4.8538   -9.4496   36.8813 C   0  0  0  0  0  0
   -5.0194  -11.8548   37.0382 C   0  0  0  0  0  0
   -9.2443   -5.1236   37.8184 C   0  0  0  0  0  0
   -8.4285   -2.8498   37.8597 C   0  0  0  0  0  0
   -4.5540   -9.5588   35.5235 C   0  0  0  0  0  0
   -4.7196  -11.9641   35.6804 C   0  0  0  0  0  0
   -7.5532   -4.4757   39.4176 C   0  0  0  0  0  0
   -5.0865  -10.5976   37.6387 C   0  0  0  0  0  0
   -9.2641   -3.8237   37.3129 C   0  0  0  0  0  0
   -4.4868  -10.8160   34.9230 C   0  0  0  0  0  0
   -6.6377   -4.8250   40.5437 C   0  0  0  0  0  0
   -6.9437  -10.3612   39.3291 C   0  0  0  0  0  0
   -4.7158   -9.3153   39.8647 C   0  0  0  0  0  0
   -7.3428  -10.2410   40.7978 C   0  0  0  0  0  0
   -5.1199   -9.2196   41.3334 C   0  0  0  0  0  0
   -5.4171  -10.4782   39.1275 C   0  0  2  0  0  0
   -7.2401   -5.3417   41.8416 C   0  0  0  0  0  0
   -6.7515   -6.7497   42.1856 C   0  0  0  0  0  0
   -7.1578   -7.7467   41.1109 C   0  0  0  0  0  0
   -6.6168   -9.1048   41.4684 N   0  3  1  0  0  0
   -5.4254   -4.6888   40.3956 O   0  0  0  0  0  0
   -4.9867  -11.6923   39.7671 O   0  0  0  0  0  0
  -10.0856   -3.5105   36.3021 F   0  0  0  0  0  0
   -4.1170  -10.9504   33.2479 Cl  0  0  0  0  0  0
   -8.3814   -6.4656   39.2568 H   0  0  0  0  0  0
   -6.9256   -2.4091   39.3303 H   0  0  0  0  0  0
   -4.9041   -8.4665   37.3420 H   0  0  0  0  0  0
   -5.1997  -12.7541   37.6213 H   0  0  0  0  0  0
   -9.8948   -5.8816   37.3923 H   0  0  0  0  0  0
   -8.4445   -1.8375   37.4661 H   0  0  0  0  0  0
   -4.3753   -8.6555   34.9459 H   0  0  0  0  0  0
   -4.6705  -12.9502   35.2261 H   0  0  0  0  0  0
   -7.4351  -11.2383   38.8942 H   0  0  0  0  0  0
   -7.3310   -9.5000   38.7759 H   0  0  0  0  0  0
   -4.9425   -8.3650   39.3640 H   0  0  0  0  0  0
   -3.6262   -9.4328   39.7882 H   0  0  0  0  0  0
   -8.4243  -10.0631   40.9161 H   0  0  0  0  0  0
   -7.0820  -11.1627   41.3418 H   0  0  0  0  0  0
   -4.8133  -10.1319   41.8698 H   0  0  0  0  0  0
   -4.6671   -8.3513   41.8399 H   0  0  0  0  0  0
   -6.9604   -4.6590   42.6519 H   0  0  0  0  0  0
   -8.3308   -5.3561   41.7373 H   0  0  0  0  0  0
   -5.6598   -6.7452   42.2972 H   0  0  0  0  0  0
   -7.1645   -7.0562   43.1550 H   0  0  0  0  0  0
   -6.7421   -7.4869   40.1329 H   0  0  0  0  0  0
   -8.2445   -7.8477   41.0348 H   0  0  0  0  0  0
   -4.0310  -11.7620   39.6158 H   0  0  0  0  0  0
   -6.8021   -9.2137   42.4450 H   0  0  0  0  0  0
  1  5  2  0  0  0
  1  9  1  0  0  0
  1 27  1  0  0  0
  2  6  1  0  0  0
  2  9  2  0  0  0
  2 28  1  0  0  0
  3  7  2  0  0  0
  3 10  1  0  0  0
  3 29  1  0  0  0
  4  8  1  0  0  0
  4 10  2  0  0  0
  4 30  1  0  0  0
  5 11  1  0  0  0
  5 31  1  0  0  0
  6 11  2  0  0  0
  6 32  1  0  0  0
  7 12  1  0  0  0
  7 33  1  0  0  0
  8 12  2  0  0  0
  8 34  1  0  0  0
  9 13  1  0  0  0
 10 18  1  0  0  0
 11 25  1  0  0  0
 12 26  1  0  0  0
 13 19  1  0  0  0
 13 23  2  0  0  0
 14 16  1  0  0  0
 14 18  1  0  0  0
 14 35  1  0  0  0
 14 36  1  0  0  0
 15 17  1  0  0  0
 15 18  1  0  0  0
 15 37  1  0  0  0
 15 38  1  0  0  0
 16 22  1  0  0  0
 16 39  1  0  0  0
 16 40  1  0  0  0
 17 22  1  0  0  0
 17 41  1  0  0  0
 17 42  1  0  0  0
 18 24  1  0  0  0
 19 20  1  0  0  0
 19 43  1  0  0  0
 19 44  1  0  0  0
 20 21  1  0  0  0
 20 45  1  0  0  0
 20 46  1  0  0  0
 21 22  1  0  0  0
 21 47  1  0  0  0
 21 48  1  0  0  0
 22 50  1  0  0  0
 24 49  1  0  0  0
M  CHG  1  22   1
M  END
> <EON_Query>
60c

> <EON_ET_pb>
0.032

> <EON_ET_coul>
0.003

> <EON_ET_combo>
0.592

> <EON_ShapeTanimoto>
0.559

> <ROCS_ShapeQuery>
60c

> <ROCS_TanimotoCombo>
0.85

> <ROCS_ShapeTanimoto>
0.706

> <ROCS_ColorTanimoto>
0.144

> <ROCS_RefTversky>
0.777

> <ROCS_RefColorTversky>
0.229

> <ROCS_RefTverskyCombo>
1.005

> <ROCS_FitTversky>
0.885

> <ROCS_FitColorTversky>
0.28

> <ROCS_FitTverskyCombo>
1.165

> <ROCS_ColorScore>
-2.267

> <ROCS_Overlap>
1012.79

> <ROCS_Rank>
268

> <EON_Rank>
751

> <i_qp_#stars>
0

> <i_qp_#amine>
1

> <i_qp_#amidine>
0

> <i_qp_#acid>
0

> <i_qp_#amide>
0

> <i_qp_#rotor>
6

> <i_qp_#rtvFG>
0

> <i_qp_CNS>
1

> <r_qp_mol_MW>
375.87

> <r_qp_dipole>
3.06153

> <r_qp_SASA>
651.101

> <r_qp_FOSA>
209.732

> <r_qp_FISA>
62.4738

> <r_qp_PISA>
260.729

> <r_qp_WPSA>
118.165

> <r_qp_volume>
1167.74

> <r_qp_donorHB>
1

> <r_qp_accptHB>
4.75

> <r_qp_dip^2/V>
0.00802661

> <r_qp_ACxDN^.5/SA>
0.00729534

> <r_qp_glob>
0.823659

> <r_qp_QPpolrz>
39.2163

> <r_qp_QPlogPC16>
11.7703

> <r_qp_QPlogPoct>
17.2523

> <r_qp_QPlogPw>
8.34567

> <r_qp_QPlogPo/w>
4.30352

> <r_qp_QPlogS>
-4.44031

> <r_qp_CIQPlogS>
-4.66283

> <r_qp_QPlogHERG>
-6.35496

> <r_qp_QPPCaco>
631.482

> <r_qp_QPlogBB>
0.276443

> <r_qp_QPPMDCK>
1478.27

> <r_qp_QPlogKp>
-3.23896

> <r_qp_IP(eV)>
9.18257

> <r_qp_EA(eV)>
0.515248

> <i_qp_#metab>
3

> <r_qp_QPlogKhsa>
0.614207

> <i_qp_HumanOralAbsorption>
3

> <r_qp_PercentHumanOralAbsorption>
100

> <r_qp_SAfluorine>
46.6154

> <r_qp_SAamideO>
0

> <r_qp_PSA>
46.829

> <i_qp_#NandO>
3

> <i_qp_RuleOfFive>
0

> <i_qp_RuleOfThree>
0

> <i_qp_#ringatoms>
18

> <i_qp_#in34>
0

> <i_qp_#in56>
18

> <i_qp_#noncon>
5

> <i_qp_#nonHatm>
26

> <r_qp_Jm>
0.00418011

> <stars>
0

> <logP>
4.30352

> <Caco>
631.482

> <MDCK>
1478.27

> <HumanOralAbsorption>
3

> <PercentHumanOralAbsorption>
100.0

> <RuleOfFive>
0

> <base>
fda.sdf

$$$$
Chloroquine phosphate.cdx_98
                    3D
 Schrodinger Suite 2022-3.
 50 51  0  0  1  0            999 V2000
   -7.5278   -6.2595   38.3321 C   0  0  0  0  0  0
   -8.2744   -5.6468   37.3235 C   0  0  0  0  0  0
   -6.3556   -5.4641   41.7732 C   0  0  0  0  0  0
   -8.5776   -3.6943   38.7154 C   0  0  0  0  0  0
   -6.9028   -4.1979   41.8979 C   0  0  0  0  0  0
   -7.2962   -5.5961   39.5474 C   0  0  0  0  0  0
   -7.8310   -4.3016   39.7299 C   0  0  0  0  0  0
   -6.5539   -6.1672   40.5900 C   0  0  0  0  0  0
   -8.7974   -4.3683   37.5149 C   0  0  0  0  0  0
   -4.4867   -9.6966   34.5621 C   0  0  0  0  0  0
   -4.0052  -12.7930   36.1672 C   0  0  0  0  0  0
   -6.6262   -8.7711   42.3887 C   0  0  0  0  0  0
   -6.0783   -9.7604   38.6599 C   0  0  0  0  0  0
   -6.0511   -9.8605   40.1893 C   0  0  0  0  0  0
   -4.3736   -9.8423   36.0639 C   0  0  0  0  0  0
   -5.3217  -12.1320   35.8215 C   0  0  0  0  0  0
   -5.4142  -10.9731   38.0236 C   0  0  0  0  0  0
   -6.6904   -8.6428   40.8702 C   0  0  2  0  0  0
   -7.6105   -3.6626   40.8943 N   0  3  0  0  0  0
   -6.0013   -7.4305   40.4795 N   0  0  0  0  0  0
   -5.4220  -10.8135   36.5495 N   0  3  0  0  0  0
   -9.7163   -3.6212   36.2658 Cl  0  0  0  0  0  0
   -7.1362   -7.2566   38.1459 H   0  0  0  0  0  0
   -8.4408   -6.1808   36.3911 H   0  0  0  0  0  0
   -5.7835   -5.8891   42.5924 H   0  0  0  0  0  0
   -8.9841   -2.6971   38.8678 H   0  0  0  0  0  0
   -6.7975   -3.5835   42.7817 H   0  0  0  0  0  0
   -4.3035  -10.6588   34.0742 H   0  0  0  0  0  0
   -5.4855   -9.3546   34.2717 H   0  0  0  0  0  0
   -3.7554   -8.9777   34.1779 H   0  0  0  0  0  0
   -3.1701  -12.1657   35.8406 H   0  0  0  0  0  0
   -3.9111  -12.9467   37.2472 H   0  0  0  0  0  0
   -3.9098  -13.7666   35.6750 H   0  0  0  0  0  0
   -5.5878   -8.8525   42.7286 H   0  0  0  0  0  0
   -7.0726   -7.8971   42.8739 H   0  0  0  0  0  0
   -7.1579   -9.6638   42.7371 H   0  0  0  0  0  0
   -7.1174   -9.6838   38.3165 H   0  0  0  0  0  0
   -5.5640   -8.8481   38.3346 H   0  0  0  0  0  0
   -6.5911  -10.7666   40.4929 H   0  0  0  0  0  0
   -5.0134   -9.9794   40.5267 H   0  0  0  0  0  0
   -4.5524   -8.8934   36.5770 H   0  0  0  0  0  0
   -3.4009  -10.2456   36.3589 H   0  0  0  0  0  0
   -6.1744  -12.7392   36.1375 H   0  0  0  0  0  0
   -5.3969  -11.9153   34.7524 H   0  0  0  0  0  0
   -4.3678  -11.0733   38.3264 H   0  0  0  0  0  0
   -5.9525  -11.8993   38.2451 H   0  0  0  0  0  0
   -7.7410   -8.5639   40.5682 H   0  0  0  0  0  0
   -5.0645   -7.5179   40.1071 H   0  0  0  0  0  0
   -7.9925   -2.7464   41.0155 H   0  0  0  0  0  0
   -6.3086  -10.4206   36.3055 H   0  0  0  0  0  0
  1  2  2  0  0  0
  1  6  1  0  0  0
  1 23  1  0  0  0
  2  9  1  0  0  0
  2 24  1  0  0  0
  3  5  2  0  0  0
  3  8  1  0  0  0
  3 25  1  0  0  0
  4  7  1  0  0  0
  4  9  2  0  0  0
  4 26  1  0  0  0
  5 19  1  0  0  0
  5 27  1  0  0  0
  6  7  1  0  0  0
  6  8  2  0  0  0
  7 19  2  0  0  0
  8 20  1  0  0  0
  9 22  1  0  0  0
 10 15  1  0  0  0
 10 28  1  0  0  0
 10 29  1  0  0  0
 10 30  1  0  0  0
 11 16  1  0  0  0
 11 31  1  0  0  0
 11 32  1  0  0  0
 11 33  1  0  0  0
 12 18  1  0  0  0
 12 34  1  0  0  0
 12 35  1  0  0  0
 12 36  1  0  0  0
 13 14  1  0  0  0
 13 17  1  0  0  0
 13 37  1  0  0  0
 13 38  1  0  0  0
 14 18  1  0  0  0
 14 39  1  0  0  0
 14 40  1  0  0  0
 15 21  1  0  0  0
 15 41  1  0  0  0
 15 42  1  0  0  0
 16 21  1  0  0  0
 16 43  1  0  0  0
 16 44  1  0  0  0
 17 21  1  0  0  0
 17 45  1  0  0  0
 17 46  1  0  0  0
 18 20  1  0  0  0
 18 47  1  0  0  0
 19 49  1  0  0  0
 20 48  1  0  0  0
 21 50  1  0  0  0
M  CHG  2  19   1  21   1
M  END
> <EON_Query>
60c

> <EON_ET_pb>
0.011

> <EON_ET_coul>
0.003

> <EON_ET_combo>
0.59

> <EON_ShapeTanimoto>
0.579

> <ROCS_ShapeQuery>
60c

> <ROCS_TanimotoCombo>
0.777

> <ROCS_ShapeTanimoto>
0.71

> <ROCS_ColorTanimoto>
0.067

> <ROCS_RefTversky>
0.723

> <ROCS_RefColorTversky>
0.102

> <ROCS_RefTverskyCombo>
0.825

> <ROCS_FitTversky>
0.975

> <ROCS_FitColorTversky>
0.161

> <ROCS_FitTverskyCombo>
1.136

> <ROCS_ColorScore>
-1.002

> <ROCS_Overlap>
936.201

> <ROCS_Rank>
839

> <EON_Rank>
762

> <i_qp_#stars>
0

> <i_qp_#amine>
1

> <i_qp_#amidine>
0

> <i_qp_#acid>
0

> <i_qp_#amide>
0

> <i_qp_#rotor>
8

> <i_qp_#rtvFG>
0

> <i_qp_CNS>
1

> <r_qp_mol_MW>
319.876

> <r_qp_dipole>
5.24161

> <r_qp_SASA>
620.431

> <r_qp_FOSA>
348.471

> <r_qp_FISA>
30.099

> <r_qp_PISA>
170.381

> <r_qp_WPSA>
71.4804

> <r_qp_volume>
1102.21

> <r_qp_donorHB>
1

> <r_qp_accptHB>
4

> <r_qp_dip^2/V>
0.0249268

> <r_qp_ACxDN^.5/SA>
0.00644713

> <r_qp_glob>
0.831725

> <r_qp_QPpolrz>
34.4466

> <r_qp_QPlogPC16>
10.5897

> <r_qp_QPlogPoct>
14.814

> <r_qp_QPlogPw>
6.24079

> <r_qp_QPlogPo/w>
4.23212

> <r_qp_QPlogS>
-3.91251

> <r_qp_CIQPlogS>
-3.66277

> <r_qp_QPlogHERG>
-5.79357

> <r_qp_QPPCaco>
1280.47

> <r_qp_QPlogBB>
0.365217

> <r_qp_QPPMDCK>
1761.39

> <r_qp_QPlogKp>
-2.76855

> <r_qp_IP(eV)>
8.86367

> <r_qp_EA(eV)>
0.964275

> <i_qp_#metab>
4

> <r_qp_QPlogKhsa>
0.502863

> <i_qp_HumanOralAbsorption>
3

> <r_qp_PercentHumanOralAbsorption>
100

> <r_qp_SAfluorine>
0

> <r_qp_SAamideO>
0

> <r_qp_PSA>
25.383

> <i_qp_#NandO>
3

> <i_qp_RuleOfFive>
0

> <i_qp_RuleOfThree>
0

> <i_qp_#ringatoms>
10

> <i_qp_#in34>
0

> <i_qp_#in56>
10

> <i_qp_#noncon>
0

> <i_qp_#nonHatm>
22

> <r_qp_Jm>
0.0666689

> <stars>
0

> <logP>
4.23212

> <Caco>
1280.47

> <MDCK>
1761.39

> <HumanOralAbsorption>
3

> <PercentHumanOralAbsorption>
100.0

> <RuleOfFive>
0

> <base>
fda.sdf

$$$$
BindingDB_50192694_mol_1_98
                    3D
 Schrodinger Suite 2022-3.
 50 51  0  0  1  0            999 V2000
   -7.5278   -6.2595   38.3321 C   0  0  0  0  0  0
   -8.2744   -5.6468   37.3235 C   0  0  0  0  0  0
   -6.3556   -5.4641   41.7732 C   0  0  0  0  0  0
   -8.5776   -3.6943   38.7154 C   0  0  0  0  0  0
   -6.9028   -4.1979   41.8979 C   0  0  0  0  0  0
   -7.2962   -5.5961   39.5474 C   0  0  0  0  0  0
   -7.8310   -4.3016   39.7299 C   0  0  0  0  0  0
   -6.5539   -6.1672   40.5900 C   0  0  0  0  0  0
   -8.7974   -4.3683   37.5149 C   0  0  0  0  0  0
   -4.4867   -9.6966   34.5621 C   0  0  0  0  0  0
   -4.0052  -12.7930   36.1672 C   0  0  0  0  0  0
   -6.6262   -8.7711   42.3887 C   0  0  0  0  0  0
   -6.0783   -9.7604   38.6599 C   0  0  0  0  0  0
   -6.0511   -9.8605   40.1893 C   0  0  0  0  0  0
   -4.3736   -9.8423   36.0639 C   0  0  0  0  0  0
   -5.3217  -12.1320   35.8215 C   0  0  0  0  0  0
   -5.4142  -10.9731   38.0236 C   0  0  0  0  0  0
   -6.6904   -8.6428   40.8702 C   0  0  2  0  0  0
   -7.6105   -3.6626   40.8943 N   0  3  0  0  0  0
   -6.0013   -7.4305   40.4795 N   0  0  0  0  0  0
   -5.4220  -10.8135   36.5495 N   0  3  0  0  0  0
   -9.7163   -3.6212   36.2658 Cl  0  0  0  0  0  0
   -7.1362   -7.2566   38.1459 H   0  0  0  0  0  0
   -8.4408   -6.1808   36.3911 H   0  0  0  0  0  0
   -5.7835   -5.8891   42.5924 H   0  0  0  0  0  0
   -8.9841   -2.6971   38.8678 H   0  0  0  0  0  0
   -6.7975   -3.5835   42.7817 H   0  0  0  0  0  0
   -4.3035  -10.6588   34.0742 H   0  0  0  0  0  0
   -5.4855   -9.3546   34.2717 H   0  0  0  0  0  0
   -3.7554   -8.9777   34.1779 H   0  0  0  0  0  0
   -3.1701  -12.1657   35.8406 H   0  0  0  0  0  0
   -3.9111  -12.9467   37.2472 H   0  0  0  0  0  0
   -3.9098  -13.7666   35.6750 H   0  0  0  0  0  0
   -5.5878   -8.8525   42.7286 H   0  0  0  0  0  0
   -7.0726   -7.8971   42.8739 H   0  0  0  0  0  0
   -7.1579   -9.6638   42.7371 H   0  0  0  0  0  0
   -7.1174   -9.6838   38.3165 H   0  0  0  0  0  0
   -5.5640   -8.8481   38.3346 H   0  0  0  0  0  0
   -6.5911  -10.7666   40.4929 H   0  0  0  0  0  0
   -5.0134   -9.9794   40.5267 H   0  0  0  0  0  0
   -4.5524   -8.8934   36.5770 H   0  0  0  0  0  0
   -3.4009  -10.2456   36.3589 H   0  0  0  0  0  0
   -6.1744  -12.7392   36.1375 H   0  0  0  0  0  0
   -5.3969  -11.9153   34.7524 H   0  0  0  0  0  0
   -4.3678  -11.0733   38.3264 H   0  0  0  0  0  0
   -5.9525  -11.8993   38.2451 H   0  0  0  0  0  0
   -7.7410   -8.5639   40.5682 H   0  0  0  0  0  0
   -5.0645   -7.5179   40.1071 H   0  0  0  0  0  0
   -7.9925   -2.7464   41.0155 H   0  0  0  0  0  0
   -6.3086  -10.4206   36.3055 H   0  0  0  0  0  0
  1  2  2  0  0  0
  1  6  1  0  0  0
  1 23  1  0  0  0
  2  9  1  0  0  0
  2 24  1  0  0  0
  3  5  2  0  0  0
  3  8  1  0  0  0
  3 25  1  0  0  0
  4  7  1  0  0  0
  4  9  2  0  0  0
  4 26  1  0  0  0
  5 19  1  0  0  0
  5 27  1  0  0  0
  6  7  1  0  0  0
  6  8  2  0  0  0
  7 19  2  0  0  0
  8 20  1  0  0  0
  9 22  1  0  0  0
 10 15  1  0  0  0
 10 28  1  0  0  0
 10 29  1  0  0  0
 10 30  1  0  0  0
 11 16  1  0  0  0
 11 31  1  0  0  0
 11 32  1  0  0  0
 11 33  1  0  0  0
 12 18  1  0  0  0
 12 34  1  0  0  0
 12 35  1  0  0  0
 12 36  1  0  0  0
 13 14  1  0  0  0
 13 17  1  0  0  0
 13 37  1  0  0  0
 13 38  1  0  0  0
 14 18  1  0  0  0
 14 39  1  0  0  0
 14 40  1  0  0  0
 15 21  1  0  0  0
 15 41  1  0  0  0
 15 42  1  0  0  0
 16 21  1  0  0  0
 16 43  1  0  0  0
 16 44  1  0  0  0
 17 21  1  0  0  0
 17 45  1  0  0  0
 17 46  1  0  0  0
 18 20  1  0  0  0
 18 47  1  0  0  0
 19 49  1  0  0  0
 20 48  1  0  0  0
 21 50  1  0  0  0
M  CHG  2  19   1  21   1
M  END
> <EON_Query>
60c

> <EON_ET_pb>
0.011

> <EON_ET_coul>
0.003

> <EON_ET_combo>
0.59

> <EON_ShapeTanimoto>
0.579

> <ROCS_ShapeQuery>
60c

> <ROCS_TanimotoCombo>
0.777

> <ROCS_ShapeTanimoto>
0.71

> <ROCS_ColorTanimoto>
0.067

> <ROCS_RefTversky>
0.723

> <ROCS_RefColorTversky>
0.102

> <ROCS_RefTverskyCombo>
0.825

> <ROCS_FitTversky>
0.975

> <ROCS_FitColorTversky>
0.161

> <ROCS_FitTverskyCombo>
1.136

> <ROCS_ColorScore>
-1.002

> <ROCS_Overlap>
936.201

> <ROCS_Rank>
840

> <EON_Rank>
763

> <i_qp_#stars>
0

> <i_qp_#amine>
1

> <i_qp_#amidine>
0

> <i_qp_#acid>
0

> <i_qp_#amide>
0

> <i_qp_#rotor>
8

> <i_qp_#rtvFG>
0

> <i_qp_CNS>
1

> <r_qp_mol_MW>
319.876

> <r_qp_dipole>
5.24161

> <r_qp_SASA>
620.431

> <r_qp_FOSA>
348.471

> <r_qp_FISA>
30.099

> <r_qp_PISA>
170.381

> <r_qp_WPSA>
71.4804

> <r_qp_volume>
1102.21

> <r_qp_donorHB>
1

> <r_qp_accptHB>
4

> <r_qp_dip^2/V>
0.0249268

> <r_qp_ACxDN^.5/SA>
0.00644713

> <r_qp_glob>
0.831725

> <r_qp_QPpolrz>
34.4466

> <r_qp_QPlogPC16>
10.5897

> <r_qp_QPlogPoct>
14.814

> <r_qp_QPlogPw>
6.24079

> <r_qp_QPlogPo/w>
4.23212

> <r_qp_QPlogS>
-3.91251

> <r_qp_CIQPlogS>
-3.66277

> <r_qp_QPlogHERG>
-5.79357

> <r_qp_QPPCaco>
1280.47

> <r_qp_QPlogBB>
0.365217

> <r_qp_QPPMDCK>
1761.39

> <r_qp_QPlogKp>
-2.76855

> <r_qp_IP(eV)>
8.86367

> <r_qp_EA(eV)>
0.964275

> <i_qp_#metab>
4

> <r_qp_QPlogKhsa>
0.502863

> <i_qp_HumanOralAbsorption>
3

> <r_qp_PercentHumanOralAbsorption>
100

> <r_qp_SAfluorine>
0

> <r_qp_SAamideO>
0

> <r_qp_PSA>
25.383

> <i_qp_#NandO>
3

> <i_qp_RuleOfFive>
0

> <i_qp_RuleOfThree>
0

> <i_qp_#ringatoms>
10

> <i_qp_#in34>
0

> <i_qp_#in56>
10

> <i_qp_#noncon>
0

> <i_qp_#nonHatm>
22

> <r_qp_Jm>
0.0666689

> <stars>
0

> <logP>
4.23212

> <Caco>
1280.47

> <MDCK>
1761.39

> <HumanOralAbsorption>
3

> <PercentHumanOralAbsorption>
100.0

> <RuleOfFive>
0

> <base>
fda.sdf

$$$$
Molecule_98
                    3D
 Schrodinger Suite 2022-3.
 50 51  0  0  1  0            999 V2000
   -7.5278   -6.2595   38.3321 C   0  0  0  0  0  0
   -8.2744   -5.6468   37.3235 C   0  0  0  0  0  0
   -6.3556   -5.4641   41.7732 C   0  0  0  0  0  0
   -8.5776   -3.6943   38.7154 C   0  0  0  0  0  0
   -6.9028   -4.1979   41.8979 C   0  0  0  0  0  0
   -7.2962   -5.5961   39.5474 C   0  0  0  0  0  0
   -7.8310   -4.3016   39.7299 C   0  0  0  0  0  0
   -6.5539   -6.1672   40.5900 C   0  0  0  0  0  0
   -8.7974   -4.3683   37.5149 C   0  0  0  0  0  0
   -4.4867   -9.6966   34.5621 C   0  0  0  0  0  0
   -4.0052  -12.7930   36.1672 C   0  0  0  0  0  0
   -6.6262   -8.7711   42.3887 C   0  0  0  0  0  0
   -6.0783   -9.7604   38.6599 C   0  0  0  0  0  0
   -6.0511   -9.8605   40.1893 C   0  0  0  0  0  0
   -4.3736   -9.8423   36.0639 C   0  0  0  0  0  0
   -5.3217  -12.1320   35.8215 C   0  0  0  0  0  0
   -5.4142  -10.9731   38.0236 C   0  0  0  0  0  0
   -6.6904   -8.6428   40.8702 C   0  0  2  0  0  0
   -7.6105   -3.6626   40.8943 N   0  3  0  0  0  0
   -6.0013   -7.4305   40.4795 N   0  0  0  0  0  0
   -5.4220  -10.8135   36.5495 N   0  3  0  0  0  0
   -9.7163   -3.6212   36.2658 Cl  0  0  0  0  0  0
   -7.1362   -7.2566   38.1459 H   0  0  0  0  0  0
   -8.4408   -6.1808   36.3911 H   0  0  0  0  0  0
   -5.7835   -5.8891   42.5924 H   0  0  0  0  0  0
   -8.9841   -2.6971   38.8678 H   0  0  0  0  0  0
   -6.7975   -3.5835   42.7817 H   0  0  0  0  0  0
   -4.3035  -10.6588   34.0742 H   0  0  0  0  0  0
   -5.4855   -9.3546   34.2717 H   0  0  0  0  0  0
   -3.7554   -8.9777   34.1779 H   0  0  0  0  0  0
   -3.1701  -12.1657   35.8406 H   0  0  0  0  0  0
   -3.9111  -12.9467   37.2472 H   0  0  0  0  0  0
   -3.9098  -13.7666   35.6750 H   0  0  0  0  0  0
   -5.5878   -8.8525   42.7286 H   0  0  0  0  0  0
   -7.0726   -7.8971   42.8739 H   0  0  0  0  0  0
   -7.1579   -9.6638   42.7371 H   0  0  0  0  0  0
   -7.1174   -9.6838   38.3165 H   0  0  0  0  0  0
   -5.5640   -8.8481   38.3346 H   0  0  0  0  0  0
   -6.5911  -10.7666   40.4929 H   0  0  0  0  0  0
   -5.0134   -9.9794   40.5267 H   0  0  0  0  0  0
   -4.5524   -8.8934   36.5770 H   0  0  0  0  0  0
   -3.4009  -10.2456   36.3589 H   0  0  0  0  0  0
   -6.1744  -12.7392   36.1375 H   0  0  0  0  0  0
   -5.3969  -11.9153   34.7524 H   0  0  0  0  0  0
   -4.3678  -11.0733   38.3264 H   0  0  0  0  0  0
   -5.9525  -11.8993   38.2451 H   0  0  0  0  0  0
   -7.7410   -8.5639   40.5682 H   0  0  0  0  0  0
   -5.0645   -7.5179   40.1071 H   0  0  0  0  0  0
   -7.9925   -2.7464   41.0155 H   0  0  0  0  0  0
   -6.3086  -10.4206   36.3055 H   0  0  0  0  0  0
  1  2  2  0  0  0
  1  6  1  0  0  0
  1 23  1  0  0  0
  2  9  1  0  0  0
  2 24  1  0  0  0
  3  5  2  0  0  0
  3  8  1  0  0  0
  3 25  1  0  0  0
  4  7  1  0  0  0
  4  9  2  0  0  0
  4 26  1  0  0  0
  5 19  1  0  0  0
  5 27  1  0  0  0
  6  7  1  0  0  0
  6  8  2  0  0  0
  7 19  2  0  0  0
  8 20  1  0  0  0
  9 22  1  0  0  0
 10 15  1  0  0  0
 10 28  1  0  0  0
 10 29  1  0  0  0
 10 30  1  0  0  0
 11 16  1  0  0  0
 11 31  1  0  0  0
 11 32  1  0  0  0
 11 33  1  0  0  0
 12 18  1  0  0  0
 12 34  1  0  0  0
 12 35  1  0  0  0
 12 36  1  0  0  0
 13 14  1  0  0  0
 13 17  1  0  0  0
 13 37  1  0  0  0
 13 38  1  0  0  0
 14 18  1  0  0  0
 14 39  1  0  0  0
 14 40  1  0  0  0
 15 21  1  0  0  0
 15 41  1  0  0  0
 15 42  1  0  0  0
 16 21  1  0  0  0
 16 43  1  0  0  0
 16 44  1  0  0  0
 17 21  1  0  0  0
 17 45  1  0  0  0
 17 46  1  0  0  0
 18 20  1  0  0  0
 18 47  1  0  0  0
 19 49  1  0  0  0
 20 48  1  0  0  0
 21 50  1  0  0  0
M  CHG  2  19   1  21   1
M  END
> <EON_Query>
60c

> <EON_ET_pb>
0.011

> <EON_ET_coul>
0.003

> <EON_ET_combo>
0.59

> <EON_ShapeTanimoto>
0.579

> <ROCS_ShapeQuery>
60c

> <ROCS_TanimotoCombo>
0.777

> <ROCS_ShapeTanimoto>
0.71

> <ROCS_ColorTanimoto>
0.067

> <ROCS_RefTversky>
0.723

> <ROCS_RefColorTversky>
0.102

> <ROCS_RefTverskyCombo>
0.825

> <ROCS_FitTversky>
0.975

> <ROCS_FitColorTversky>
0.161

> <ROCS_FitTverskyCombo>
1.136

> <ROCS_ColorScore>
-1.002

> <ROCS_Overlap>
936.201

> <ROCS_Rank>
838

> <EON_Rank>
764

> <i_qp_#stars>
0

> <i_qp_#amine>
1

> <i_qp_#amidine>
0

> <i_qp_#acid>
0

> <i_qp_#amide>
0

> <i_qp_#rotor>
8

> <i_qp_#rtvFG>
0

> <i_qp_CNS>
1

> <r_qp_mol_MW>
319.876

> <r_qp_dipole>
5.24161

> <r_qp_SASA>
620.431

> <r_qp_FOSA>
348.471

> <r_qp_FISA>
30.099

> <r_qp_PISA>
170.381

> <r_qp_WPSA>
71.4804

> <r_qp_volume>
1102.21

> <r_qp_donorHB>
1

> <r_qp_accptHB>
4

> <r_qp_dip^2/V>
0.0249268

> <r_qp_ACxDN^.5/SA>
0.00644713

> <r_qp_glob>
0.831725

> <r_qp_QPpolrz>
34.4466

> <r_qp_QPlogPC16>
10.5897

> <r_qp_QPlogPoct>
14.814

> <r_qp_QPlogPw>
6.24079

> <r_qp_QPlogPo/w>
4.23212

> <r_qp_QPlogS>
-3.91251

> <r_qp_CIQPlogS>
-3.66277

> <r_qp_QPlogHERG>
-5.79357

> <r_qp_QPPCaco>
1280.47

> <r_qp_QPlogBB>
0.365217

> <r_qp_QPPMDCK>
1761.39

> <r_qp_QPlogKp>
-2.76855

> <r_qp_IP(eV)>
8.86367

> <r_qp_EA(eV)>
0.964275

> <i_qp_#metab>
4

> <r_qp_QPlogKhsa>
0.502863

> <i_qp_HumanOralAbsorption>
3

> <r_qp_PercentHumanOralAbsorption>
100

> <r_qp_SAfluorine>
0

> <r_qp_SAamideO>
0

> <r_qp_PSA>
25.383

> <i_qp_#NandO>
3

> <i_qp_RuleOfFive>
0

> <i_qp_RuleOfThree>
0

> <i_qp_#ringatoms>
10

> <i_qp_#in34>
0

> <i_qp_#in56>
10

> <i_qp_#noncon>
0

> <i_qp_#nonHatm>
22

> <r_qp_Jm>
0.0666689

> <stars>
0

> <logP>
4.23212

> <Caco>
1280.47

> <MDCK>
1761.39

> <HumanOralAbsorption>
3

> <PercentHumanOralAbsorption>
100.0

> <RuleOfFive>
0

> <base>
fda.sdf

$$$$
Molecule_0
                    3D
 Schrodinger Suite 2022-3.
 43 47  0  0  1  0            999 V2000
   -4.1721  -10.6779   35.1701 C   0  0  0  0  0  0
   -4.5285  -10.1362   36.4001 C   0  0  0  0  0  0
   -5.3204  -11.2312   39.8259 C   0  0  0  0  0  0
   -5.6838  -10.7291   41.0777 C   0  0  0  0  0  0
   -7.5557   -2.7951   39.7453 C   0  0  0  0  0  0
   -8.0628   -4.1523   37.8119 C   0  0  0  0  0  0
   -7.8479   -1.6439   39.0138 C   0  0  0  0  0  0
   -8.3550   -3.0011   37.0805 C   0  0  0  0  0  0
   -5.8776   -9.1154   38.7868 C   0  0  0  0  0  0
   -4.3427  -12.0407   34.9877 C   0  0  0  0  0  0
   -5.1694  -12.3124   37.1139 C   0  0  0  0  0  0
   -5.4170  -10.4286   38.6867 C   0  0  0  0  0  0
   -5.0375  -10.9623   37.3961 C   0  0  0  0  0  0
   -7.6632   -4.0493   39.1443 C   0  0  0  0  0  0
   -6.1465   -9.4157   41.1907 C   0  0  0  0  0  0
   -6.2392   -8.6174   40.0386 C   0  0  0  0  0  0
   -8.2475   -1.7469   37.6814 C   0  0  0  0  0  0
   -7.5325   -5.3687   41.2542 C   0  0  0  0  0  0
   -7.3545   -5.2689   39.9189 C   0  0  0  0  0  0
   -6.5280   -8.9026   42.5354 C   0  0  0  0  0  0
   -7.1140   -6.7325   41.5561 C   0  0  0  0  0  0
   -7.4306   -6.9230   44.0052 C   0  0  0  0  0  0
   -4.8338  -12.8750   35.9313 N   0  0  0  0  0  0
   -6.8721   -6.4016   39.2695 N   0  0  0  0  0  0
   -6.7038   -7.3225   40.2062 N   0  3  0  0  0  0
   -7.0638   -7.3846   42.6584 N   0  3  0  0  0  0
   -6.4713   -9.5387   43.5735 O   0  0  0  0  0  0
   -8.6080   -0.3266   36.7795 Cl  0  0  0  0  0  0
   -3.7741  -10.0535   34.3785 H   0  0  0  0  0  0
   -4.4042   -9.0693   36.5683 H   0  0  0  0  0  0
   -4.9621  -12.2558   39.7537 H   0  0  0  0  0  0
   -5.5998  -11.3740   41.9482 H   0  0  0  0  0  0
   -7.2449   -2.6994   40.7830 H   0  0  0  0  0  0
   -8.1510   -5.1232   37.3303 H   0  0  0  0  0  0
   -7.7602   -0.6734   39.4957 H   0  0  0  0  0  0
   -8.6651   -3.0966   36.0429 H   0  0  0  0  0  0
   -5.9503   -8.4971   37.8949 H   0  0  0  0  0  0
   -4.0792  -12.5121   34.0464 H   0  0  0  0  0  0
   -5.5613  -13.0104   37.8483 H   0  0  0  0  0  0
   -7.8929   -4.6267   41.9448 H   0  0  0  0  0  0
   -6.5439   -6.4858   44.4676 H   0  0  0  0  0  0
   -7.7804   -7.7841   44.5774 H   0  0  0  0  0  0
   -8.2224   -6.1782   43.9067 H   0  0  0  0  0  0
  1  2  2  0  0  0
  1 10  1  0  0  0
  1 29  1  0  0  0
  2 13  1  0  0  0
  2 30  1  0  0  0
  3  4  2  0  0  0
  3 12  1  0  0  0
  3 31  1  0  0  0
  4 15  1  0  0  0
  4 32  1  0  0  0
  5  7  2  0  0  0
  5 14  1  0  0  0
  5 33  1  0  0  0
  6  8  1  0  0  0
  6 14  2  0  0  0
  6 34  1  0  0  0
  7 17  1  0  0  0
  7 35  1  0  0  0
  8 17  2  0  0  0
  8 36  1  0  0  0
  9 12  2  0  0  0
  9 16  1  0  0  0
  9 37  1  0  0  0
 10 23  2  0  0  0
 10 38  1  0  0  0
 11 13  2  0  0  0
 11 23  1  0  0  0
 11 39  1  0  0  0
 12 13  1  0  0  0
 14 19  1  0  0  0
 15 16  2  0  0  0
 15 20  1  0  0  0
 16 25  1  0  0  0
 17 28  1  0  0  0
 18 19  2  0  0  0
 18 21  1  0  0  0
 18 40  1  0  0  0
 19 24  1  0  0  0
 20 26  1  0  0  0
 20 27  2  0  0  0
 21 25  1  0  0  0
 21 26  2  0  0  0
 22 26  1  0  0  0
 22 41  1  0  0  0
 22 42  1  0  0  0
 22 43  1  0  0  0
 24 25  2  0  0  0
M  CHG  2  25   1  26   1
M  END
> <EON_Query>
60c

> <EON_ET_pb>
0.004

> <EON_ET_coul>
-0.014

> <EON_ET_combo>
0.589

> <EON_ShapeTanimoto>
0.586

> <ROCS_ShapeQuery>
60c

> <ROCS_TanimotoCombo>
0.812

> <ROCS_ShapeTanimoto>
0.69

> <ROCS_ColorTanimoto>
0.122

> <ROCS_RefTversky>
0.816

> <ROCS_RefColorTversky>
0.187

> <ROCS_RefTverskyCombo>
1.004

> <ROCS_FitTversky>
0.817

> <ROCS_FitColorTversky>
0.257

> <ROCS_FitTverskyCombo>
1.074

> <ROCS_ColorScore>
-1.847

> <ROCS_Overlap>
1072.1

> <ROCS_Rank>
550

> <EON_Rank>
775

> <i_qp_#stars>
0

> <i_qp_#amine>
0

> <i_qp_#amidine>
0

> <i_qp_#acid>
0

> <i_qp_#amide>
0

> <i_qp_#rotor>
1

> <i_qp_#rtvFG>
0

> <i_qp_CNS>
0

> <r_qp_mol_MW>
386.84

> <r_qp_dipole>
2.38401

> <r_qp_SASA>
663.332

> <r_qp_FOSA>
77.7278

> <r_qp_FISA>
85.3342

> <r_qp_PISA>
428.722

> <r_qp_WPSA>
71.5479

> <r_qp_volume>
1161.29

> <r_qp_donorHB>
0

> <r_qp_accptHB>
5.5

> <r_qp_dip^2/V>
0.0048941

> <r_qp_ACxDN^.5/SA>
0

> <r_qp_glob>
0.805494

> <r_qp_QPpolrz>
43.7732

> <r_qp_QPlogPC16>
13.137

> <r_qp_QPlogPoct>
18.0029

> <r_qp_QPlogPw>
10.0341

> <r_qp_QPlogPo/w>
4.37728

> <r_qp_QPlogS>
-6.05662

> <r_qp_CIQPlogS>
-6.23548

> <r_qp_QPlogHERG>
-6.72387

> <r_qp_QPPCaco>
1537.01

> <r_qp_QPlogBB>
-0.198042

> <r_qp_QPPMDCK>
1941.17

> <r_qp_QPlogKp>
-1.48594

> <r_qp_IP(eV)>
8.04823

> <r_qp_EA(eV)>
1.35394

> <i_qp_#metab>
2

> <r_qp_QPlogKhsa>
0.475529

> <i_qp_HumanOralAbsorption>
3

> <r_qp_PercentHumanOralAbsorption>
100

> <r_qp_SAfluorine>
0

> <r_qp_SAamideO>
0

> <r_qp_PSA>
58.8318

> <i_qp_#NandO>
5

> <i_qp_RuleOfFive>
0

> <i_qp_RuleOfThree>
1

> <i_qp_#ringatoms>
25

> <i_qp_#in34>
0

> <i_qp_#in56>
25

> <i_qp_#noncon>
0

> <i_qp_#nonHatm>
28

> <r_qp_Jm>
0.0110911

> <stars>
0

> <logP>
4.37728

> <Caco>
1537.01

> <MDCK>
1941.17

> <HumanOralAbsorption>
3

> <PercentHumanOralAbsorption>
100.0

> <RuleOfFive>
0

> <base>
fda.sdf

$$$$
Molecule_1
                    3D
 Schrodinger Suite 2022-3.
 40 44  0  0  1  0            999 V2000
   -8.5349   -3.3441   39.2648 C   0  0  0  0  0  0
   -9.0867   -3.7436   38.0533 C   0  0  0  0  0  0
   -7.6714   -4.1970   39.9444 C   0  0  0  0  0  0
   -8.7731   -4.9961   37.5158 C   0  0  0  0  0  0
   -7.3556   -5.4507   39.4012 C   0  0  0  0  0  0
   -7.8958   -5.8788   38.1713 C   0  0  0  0  0  0
   -3.7946  -11.9671   35.0740 C   0  0  0  0  0  0
   -4.7636  -11.0633   34.8641 C   0  0  0  0  0  0
   -3.2551  -12.2405   36.3940 C   0  0  0  0  0  0
   -3.8995  -11.8452   37.5054 C   0  0  0  0  0  0
   -6.4840   -6.3696   40.1765 C   0  0  0  0  0  0
   -5.4807   -9.9661   38.2526 C   0  0  0  0  0  0
   -5.8115   -8.9181   37.4878 C   0  0  0  0  0  0
   -5.2540  -10.3897   36.0831 C   0  0  0  0  0  0
   -5.4205   -9.9121   39.7318 C   0  0  0  0  0  0
   -5.1856   -8.4700   40.1785 C   0  0  0  0  0  0
   -5.2211  -11.1562   37.4018 C   0  0  1  0  0  0
   -6.1861   -7.5621   38.0117 C   0  0  1  0  0  0
   -8.2946   -7.6918   36.5377 C   0  0  0  0  0  0
   -5.6660   -9.1595   36.1427 N   0  0  0  0  0  0
   -7.5540   -7.1415   37.6634 N   0  0  0  0  0  0
   -6.0505   -7.5059   39.4868 N   0  0  0  0  0  0
   -6.2202   -6.1107   41.3475 O   0  0  0  0  0  0
   -8.7751   -2.3679   39.6771 H   0  0  0  0  0  0
   -9.7648   -3.0808   37.5214 H   0  0  0  0  0  0
   -7.2569   -3.8652   40.8901 H   0  0  0  0  0  0
   -9.2428   -5.2626   36.5756 H   0  0  0  0  0  0
   -3.3409  -12.4855   34.2359 H   0  0  0  0  0  0
   -5.1226  -10.7780   33.8852 H   0  0  0  0  0  0
   -2.3163  -12.7797   36.4569 H   0  0  0  0  0  0
   -3.4914  -12.0849   38.4829 H   0  0  0  0  0  0
   -6.3735  -10.2652   40.1316 H   0  0  0  0  0  0
   -4.6283  -10.5505   40.1231 H   0  0  0  0  0  0
   -5.3175   -8.3874   41.2787 H   0  0  0  0  0  0
   -4.1340   -8.1664   39.9816 H   0  0  0  0  0  0
   -6.0517  -11.8670   37.4576 H   0  0  0  0  0  0
   -5.5051   -6.8005   37.6216 H   0  0  0  0  0  0
   -7.8993   -8.6759   36.2730 H   0  0  0  0  0  0
   -8.2081   -7.0326   35.6697 H   0  0  0  0  0  0
   -9.3521   -7.7951   36.7953 H   0  0  0  0  0  0
  1  2  2  0  0  0
  1  3  1  0  0  0
  1 24  1  0  0  0
  2  4  1  0  0  0
  2 25  1  0  0  0
  3  5  2  0  0  0
  3 26  1  0  0  0
  4  6  2  0  0  0
  4 27  1  0  0  0
  5  6  1  0  0  0
  5 11  1  0  0  0
  6 21  1  0  0  0
  7  8  2  0  0  0
  7  9  1  0  0  0
  7 28  1  0  0  0
  8 14  1  0  0  0
  8 29  1  0  0  0
  9 10  2  0  0  0
  9 30  1  0  0  0
 10 17  1  0  0  0
 10 31  1  0  0  0
 11 22  1  0  0  0
 11 23  2  0  0  0
 12 13  2  0  0  0
 12 15  1  0  0  0
 12 17  1  0  0  0
 13 18  1  0  0  0
 13 20  1  0  0  0
 14 17  1  0  0  0
 14 20  2  0  0  0
 15 16  1  0  0  0
 15 32  1  0  0  0
 15 33  1  0  0  0
 16 22  1  0  0  0
 16 34  1  0  0  0
 16 35  1  0  0  0
 17 36  1  0  0  0
 18 21  1  0  0  0
 18 22  1  0  0  0
 18 37  1  0  0  0
 19 21  1  0  0  0
 19 38  1  0  0  0
 19 39  1  0  0  0
 19 40  1  0  0  0
M  END
> <EON_Query>
60c

> <EON_ET_pb>
0.041

> <EON_ET_coul>
0.17

> <EON_ET_combo>
0.589

> <EON_ShapeTanimoto>
0.547

> <ROCS_ShapeQuery>
60c

> <ROCS_TanimotoCombo>
0.784

> <ROCS_ShapeTanimoto>
0.612

> <ROCS_ColorTanimoto>
0.173

> <ROCS_RefTversky>
0.703

> <ROCS_RefColorTversky>
0.255

> <ROCS_RefTverskyCombo>
0.958

> <ROCS_FitTversky>
0.825

> <ROCS_FitColorTversky>
0.348

> <ROCS_FitTverskyCombo>
1.174

> <ROCS_ColorScore>
-2.513

> <ROCS_Overlap>
915.418

> <ROCS_Rank>
772

> <EON_Rank>
784

> <i_qp_#stars>
0

> <i_qp_#amine>
0

> <i_qp_#amidine>
0

> <i_qp_#acid>
0

> <i_qp_#amide>
0

> <i_qp_#rotor>
0

> <i_qp_#rtvFG>
0

> <i_qp_CNS>
1

> <r_qp_mol_MW>
303.363

> <r_qp_dipole>
6.63554

> <r_qp_SASA>
549.426

> <r_qp_FOSA>
179.279

> <r_qp_FISA>
55.4068

> <r_qp_PISA>
314.74

> <r_qp_WPSA>
0

> <r_qp_volume>
963.091

> <r_qp_donorHB>
0

> <r_qp_accptHB>
5.5

> <r_qp_dip^2/V>
0.0457178

> <r_qp_ACxDN^.5/SA>
0

> <r_qp_glob>
0.858421

> <r_qp_QPpolrz>
35.3947

> <r_qp_QPlogPC16>
9.78685

> <r_qp_QPlogPoct>
15.1118

> <r_qp_QPlogPw>
8.9766

> <r_qp_QPlogPo/w>
2.8849

> <r_qp_QPlogS>
-3.74903

> <r_qp_CIQPlogS>
-3.96377

> <r_qp_QPlogHERG>
-5.32388

> <r_qp_QPPCaco>
2954.45

> <r_qp_QPlogBB>
0.062206

> <r_qp_QPPMDCK>
1595.44

> <r_qp_QPlogKp>
-1.43191

> <r_qp_IP(eV)>
8.31059

> <r_qp_EA(eV)>
1.10293

> <i_qp_#metab>
5

> <r_qp_QPlogKhsa>
-0.0573961

> <i_qp_HumanOralAbsorption>
3

> <r_qp_PercentHumanOralAbsorption>
100

> <r_qp_SAfluorine>
0

> <r_qp_SAamideO>
0

> <r_qp_PSA>
43.7937

> <i_qp_#NandO>
4

> <i_qp_RuleOfFive>
0

> <i_qp_RuleOfThree>
0

> <i_qp_#ringatoms>
21

> <i_qp_#in34>
0

> <i_qp_#in56>
21

> <i_qp_#noncon>
4

> <i_qp_#nonHatm>
23

> <r_qp_Jm>
1.99996

> <stars>
0

> <logP>
2.8849

> <Caco>
2954.45

> <MDCK>
1595.44

> <HumanOralAbsorption>
3

> <PercentHumanOralAbsorption>
100.0

> <RuleOfFive>
0

> <base>
fda.sdf

$$$$
Molecule_1
                    3D
 Schrodinger Suite 2022-3.
 51 54  0  0  1  0            999 V2000
   -5.1306  -10.1080   39.6660 C   0  0  0  0  0  0
   -4.8947  -11.5328   37.7451 C   0  0  0  0  0  0
   -5.7484   -9.1360   40.3445 C   0  0  0  0  0  0
   -5.3584  -10.3808   38.2599 C   0  0  0  0  0  0
   -5.0848  -11.8814   36.3185 C   0  0  0  0  0  0
   -7.6056   -3.2359   39.5343 C   0  0  0  0  0  0
   -5.8398  -10.9269   35.4319 C   0  0  0  0  0  0
   -6.7919  -10.0460   36.2319 C   0  0  0  0  0  0
   -6.0683   -4.6416   40.9620 C   0  0  0  0  0  0
   -5.9981   -6.1613   41.1932 C   0  0  0  0  0  0
   -8.0902   -7.5598   37.6082 C   0  0  0  0  0  0
   -7.6492   -6.1040   37.8207 C   0  0  0  0  0  0
   -6.7971   -8.2269   39.7680 C   0  0  2  0  0  0
   -6.7206   -4.4434   39.5782 C   0  0  1  0  0  0
   -7.2521   -8.6569   38.3302 C   0  0  2  0  0  0
   -6.3660   -6.7578   39.8340 C   0  0  1  0  0  0
   -6.1212   -9.3284   37.4439 C   0  0  1  0  0  0
   -7.4364   -5.7846   39.3026 C   0  0  2  0  0  0
   -6.9561   -1.9099   39.8246 C   0  0  0  0  0  0
   -5.0981   -8.3040   36.9086 C   0  0  0  0  0  0
   -8.7865   -5.8562   40.0631 C   0  0  0  0  0  0
   -4.5909  -12.9166   35.8740 O   0  0  0  0  0  0
   -8.8041   -3.3236   39.2715 O   0  0  0  0  0  0
   -4.4297  -10.7440   40.2013 H   0  0  0  0  0  0
   -4.3558  -12.2586   38.3471 H   0  0  0  0  0  0
   -5.5140   -9.0191   41.4000 H   0  0  0  0  0  0
   -5.1158  -10.3281   34.8705 H   0  0  0  0  0  0
   -6.4213  -11.5139   34.7119 H   0  0  0  0  0  0
   -7.2324   -9.3225   35.5382 H   0  0  0  0  0  0
   -7.6181  -10.6744   36.5929 H   0  0  0  0  0  0
   -6.6324   -4.1599   41.7687 H   0  0  0  0  0  0
   -5.0631   -4.2048   40.9676 H   0  0  0  0  0  0
   -4.9985   -6.4651   41.5207 H   0  0  0  0  0  0
   -6.7078   -6.4637   41.9713 H   0  0  0  0  0  0
   -9.1254   -7.6527   37.9623 H   0  0  0  0  0  0
   -8.1546   -7.7442   36.5328 H   0  0  0  0  0  0
   -6.7268   -5.9179   37.2594 H   0  0  0  0  0  0
   -8.4026   -5.4327   37.3905 H   0  0  0  0  0  0
   -7.6710   -8.3503   40.4218 H   0  0  0  0  0  0
   -5.9291   -4.2760   38.8357 H   0  0  0  0  0  0
   -7.9696   -9.4759   38.5092 H   0  0  0  0  0  0
   -5.4643   -6.6482   39.2165 H   0  0  0  0  0  0
   -6.5879   -1.4681   38.8946 H   0  0  0  0  0  0
   -6.1132   -2.0561   40.5044 H   0  0  0  0  0  0
   -7.6885   -1.2333   40.2717 H   0  0  0  0  0  0
   -5.6212   -7.5528   36.3292 H   0  0  0  0  0  0
   -4.3786   -8.8182   36.2828 H   0  0  0  0  0  0
   -4.5931   -7.8388   37.7467 H   0  0  0  0  0  0
   -8.6087   -5.6272   41.1044 H   0  0  0  0  0  0
   -9.1870   -6.8550   39.9620 H   0  0  0  0  0  0
   -9.4649   -5.1343   39.6307 H   0  0  0  0  0  0
  1  3  2  0  0  0
  1  4  1  0  0  0
  1 24  1  0  0  0
  2  4  2  0  0  0
  2  5  1  0  0  0
  2 25  1  0  0  0
  3 13  1  0  0  0
  3 26  1  0  0  0
  4 17  1  0  0  0
  5  7  1  0  0  0
  5 22  2  0  0  0
  6 14  1  0  0  0
  6 19  1  0  0  0
  6 23  2  0  0  0
  7  8  1  0  0  0
  7 27  1  0  0  0
  7 28  1  0  0  0
  8 17  1  0  0  0
  8 29  1  0  0  0
  8 30  1  0  0  0
  9 10  1  0  0  0
  9 14  1  0  0  0
  9 31  1  0  0  0
  9 32  1  0  0  0
 10 16  1  0  0  0
 10 33  1  0  0  0
 10 34  1  0  0  0
 11 12  1  0  0  0
 11 15  1  0  0  0
 11 35  1  0  0  0
 11 36  1  0  0  0
 12 18  1  0  0  0
 12 37  1  0  0  0
 12 38  1  0  0  0
 13 15  1  0  0  0
 13 16  1  0  0  0
 13 39  1  0  0  0
 14 18  1  0  0  0
 14 40  1  0  0  0
 15 17  1  0  0  0
 15 41  1  0  0  0
 16 18  1  0  0  0
 16 42  1  0  0  0
 17 20  1  0  0  0
 18 21  1  0  0  0
 19 43  1  0  0  0
 19 44  1  0  0  0
 19 45  1  0  0  0
 20 46  1  0  0  0
 20 47  1  0  0  0
 20 48  1  0  0  0
 21 49  1  0  0  0
 21 50  1  0  0  0
 21 51  1  0  0  0
M  END
> <EON_Query>
60c

> <EON_ET_pb>
0.086

> <EON_ET_coul>
0.061

> <EON_ET_combo>
0.588

> <EON_ShapeTanimoto>
0.502

> <ROCS_ShapeQuery>
60c

> <ROCS_TanimotoCombo>
0.709

> <ROCS_ShapeTanimoto>
0.551

> <ROCS_ColorTanimoto>
0.159

> <ROCS_RefTversky>
0.639

> <ROCS_RefColorTversky>
0.224

> <ROCS_RefTverskyCombo>
0.862

> <ROCS_FitTversky>
0.8

> <ROCS_FitColorTversky>
0.353

> <ROCS_FitTverskyCombo>
1.153

> <ROCS_ColorScore>
-2.194

> <ROCS_Overlap>
829.219

> <ROCS_Rank>
1649

> <EON_Rank>
787

> <i_qp_#stars>
0

> <i_qp_#amine>
0

> <i_qp_#amidine>
0

> <i_qp_#acid>
0

> <i_qp_#amide>
0

> <i_qp_#rotor>
1

> <i_qp_#rtvFG>
1

> <i_qp_CNS>
0

> <r_qp_mol_MW>
312.451

> <r_qp_dipole>
5.92245

> <r_qp_SASA>
541.816

> <r_qp_FOSA>
370.136

> <r_qp_FISA>
84.7617

> <r_qp_PISA>
86.918

> <r_qp_WPSA>
0

> <r_qp_volume>
1009.76

> <r_qp_donorHB>
0

> <r_qp_accptHB>
4

> <r_qp_dip^2/V>
0.0347365

> <r_qp_ACxDN^.5/SA>
0

> <r_qp_glob>
0.898377

> <r_qp_QPpolrz>
34.4445

> <r_qp_QPlogPC16>
8.9963

> <r_qp_QPlogPoct>
13.7002

> <r_qp_QPlogPw>
5.91024

> <r_qp_QPlogPo/w>
3.76122

> <r_qp_QPlogS>
-4.36259

> <r_qp_CIQPlogS>
-4.09446

> <r_qp_QPlogHERG>
-3.59088

> <r_qp_QPPCaco>
1556.34

> <r_qp_QPlogBB>
-0.196949

> <r_qp_QPPMDCK>
797.982

> <r_qp_QPlogKp>
-2.67946

> <r_qp_IP(eV)>
9.45347

> <r_qp_EA(eV)>
0.587784

> <i_qp_#metab>
3

> <r_qp_QPlogKhsa>
0.436867

> <i_qp_HumanOralAbsorption>
3

> <r_qp_PercentHumanOralAbsorption>
100

> <r_qp_SAfluorine>
0

> <r_qp_SAamideO>
0

> <r_qp_PSA>
51.7742

> <i_qp_#NandO>
2

> <i_qp_RuleOfFive>
0

> <i_qp_RuleOfThree>
0

> <i_qp_#ringatoms>
17

> <i_qp_#in34>
0

> <i_qp_#in56>
17

> <i_qp_#noncon>
12

> <i_qp_#nonHatm>
23

> <r_qp_Jm>
0.0387182

> <stars>
0

> <logP>
3.76122

> <Caco>
1556.34

> <MDCK>
797.982

> <HumanOralAbsorption>
3

> <PercentHumanOralAbsorption>
100.0

> <RuleOfFive>
0

> <base>
fda.sdf

$$$$
_c001_0
                    3D
 Schrodinger Suite 2022-3.
 56 59  0  0  1  0            999 V2000
   -6.8523   -4.0706   39.2634 C   0  0  0  0  0  0
   -8.8441   -4.3963   37.7430 C   0  0  0  0  0  0
   -6.7296   -5.3977   39.3608 C   0  0  0  0  0  0
   -8.7167   -5.7291   37.8413 C   0  0  0  0  0  0
   -7.9327   -3.4775   38.4555 C   0  0  0  0  0  0
   -4.2928  -11.8820   35.7435 C   0  0  0  0  0  0
   -8.8019   -7.5535   36.1490 C   0  0  0  0  0  0
   -7.5098  -10.1234   34.9935 C   0  0  0  0  0  0
   -4.8292   -9.0033   37.3910 C   0  0  0  0  0  0
   -9.6206   -6.6526   37.0630 C   0  0  2  0  0  0
   -7.7103   -8.3244   36.9098 C   0  0  1  0  0  0
   -6.8380   -9.1236   35.9297 C   0  0  1  0  0  0
   -6.3211  -10.9304   34.4109 C   0  0  1  0  0  0
   -5.5869   -8.0844   38.3770 C   0  0  1  0  0  0
   -7.6395   -6.4180   38.6915 C   0  0  1  0  0  0
   -5.1273  -10.6857   35.3880 C   0  0  1  0  0  0
   -5.7545   -9.9749   36.6276 C   0  0  1  0  0  0
   -6.7985   -7.3482   37.7298 C   0  0  2  0  0  0
   -6.7227  -12.3772   34.1456 C   0  0  0  0  0  0
   -8.3572   -7.1725   39.8349 C   0  0  0  0  0  0
   -6.3390  -11.0365   37.6001 C   0  0  0  0  0  0
   -2.8406  -11.6005   36.0541 C   0  0  0  0  0  0
   -8.0667   -2.2614   38.3724 O   0  0  0  0  0  0
   -4.7904  -13.0065   35.7728 O   0  0  0  0  0  0
   -5.9535   -8.8414   39.5189 O   0  0  0  0  0  0
   -4.1619   -9.8511   34.7383 O   0  0  0  0  0  0
  -10.5027   -5.9662   36.2789 F   0  0  0  0  0  0
   -6.2271   -6.4972   36.7963 F   0  0  0  0  0  0
   -2.2141  -12.7669   37.2286 Cl  0  0  0  0  0  0
   -6.1736   -3.4019   39.7801 H   0  0  0  0  0  0
   -9.6098   -3.9367   37.1274 H   0  0  0  0  0  0
   -5.9283   -5.7762   39.9915 H   0  0  0  0  0  0
   -9.4842   -8.2510   35.6483 H   0  0  0  0  0  0
   -8.3559   -6.9483   35.3482 H   0  0  0  0  0  0
   -8.2158  -10.7632   35.5346 H   0  0  0  0  0  0
   -8.0661   -9.6240   34.1931 H   0  0  0  0  0  0
   -4.2991   -8.3559   36.6817 H   0  0  0  0  0  0
   -4.0640   -9.5758   37.9303 H   0  0  0  0  0  0
  -10.2237   -7.2540   37.7506 H   0  0  0  0  0  0
   -8.2166   -9.0143   37.5922 H   0  0  0  0  0  0
   -6.3464   -8.3803   35.2826 H   0  0  0  0  0  0
   -6.0739  -10.4890   33.4353 H   0  0  0  0  0  0
   -4.8511   -7.3389   38.7033 H   0  0  0  0  0  0
   -6.9804  -12.8692   35.0830 H   0  0  0  0  0  0
   -5.8961  -12.9128   33.6796 H   0  0  0  0  0  0
   -7.5851  -12.4074   33.4802 H   0  0  0  0  0  0
   -9.0190   -7.9129   39.4043 H   0  0  0  0  0  0
   -8.9260   -6.4615   40.4202 H   0  0  0  0  0  0
   -7.6138   -7.6551   40.4562 H   0  0  0  0  0  0
   -6.9802  -11.6996   37.0383 H   0  0  0  0  0  0
   -6.9037  -10.5254   38.3659 H   0  0  0  0  0  0
   -5.5198  -11.5866   38.0393 H   0  0  0  0  0  0
   -2.7445  -10.5988   36.4800 H   0  0  0  0  0  0
   -2.2479  -11.6822   35.1398 H   0  0  0  0  0  0
   -5.1304   -9.1737   39.9145 H   0  0  0  0  0  0
   -3.8373  -10.3556   33.9788 H   0  0  0  0  0  0
  1  3  2  0  0  0
  1  5  1  0  0  0
  1 30  1  0  0  0
  2  4  2  0  0  0
  2  5  1  0  0  0
  2 31  1  0  0  0
  3 15  1  0  0  0
  3 32  1  0  0  0
  4 10  1  0  0  0
  4 15  1  0  0  0
  5 23  2  0  0  0
  6 16  1  0  0  0
  6 22  1  0  0  0
  6 24  2  0  0  0
  7 10  1  0  0  0
  7 11  1  0  0  0
  7 33  1  0  0  0
  7 34  1  0  0  0
  8 12  1  0  0  0
  8 13  1  0  0  0
  8 35  1  0  0  0
  8 36  1  0  0  0
  9 14  1  0  0  0
  9 17  1  0  0  0
  9 37  1  0  0  0
  9 38  1  0  0  0
 10 27  1  0  0  0
 10 39  1  0  0  0
 11 12  1  0  0  0
 11 18  1  0  0  0
 11 40  1  0  0  0
 12 17  1  0  0  0
 12 41  1  0  0  0
 13 16  1  0  0  0
 13 19  1  0  0  0
 13 42  1  0  0  0
 14 18  1  0  0  0
 14 25  1  0  0  0
 14 43  1  0  0  0
 15 18  1  0  0  0
 15 20  1  0  0  0
 16 17  1  0  0  0
 16 26  1  0  0  0
 17 21  1  0  0  0
 18 28  1  0  0  0
 19 44  1  0  0  0
 19 45  1  0  0  0
 19 46  1  0  0  0
 20 47  1  0  0  0
 20 48  1  0  0  0
 20 49  1  0  0  0
 21 50  1  0  0  0
 21 51  1  0  0  0
 21 52  1  0  0  0
 22 29  1  0  0  0
 22 53  1  0  0  0
 22 54  1  0  0  0
 25 55  1  0  0  0
 26 56  1  0  0  0
M  END
> <EON_Query>
60c

> <EON_ET_pb>
0.119

> <EON_ET_coul>
0.155

> <EON_ET_combo>
0.587

> <EON_ShapeTanimoto>
0.468

> <ROCS_ShapeQuery>
60c

> <ROCS_TanimotoCombo>
0.728

> <ROCS_ShapeTanimoto>
0.511

> <ROCS_ColorTanimoto>
0.217

> <ROCS_RefTversky>
0.675

> <ROCS_RefColorTversky>
0.356

> <ROCS_RefTverskyCombo>
1.032

> <ROCS_FitTversky>
0.678

> <ROCS_FitColorTversky>
0.356

> <ROCS_FitTverskyCombo>
1.034

> <ROCS_ColorScore>
-3.566

> <ROCS_Overlap>
886.844

> <ROCS_Rank>
1409

> <EON_Rank>
799

> <i_qp_#stars>
0

> <i_qp_#amine>
0

> <i_qp_#amidine>
0

> <i_qp_#acid>
0

> <i_qp_#amide>
0

> <i_qp_#rotor>
3

> <i_qp_#rtvFG>
1

> <i_qp_CNS>
0

> <r_qp_mol_MW>
428.903

> <r_qp_dipole>
5.30433

> <r_qp_SASA>
594.912

> <r_qp_FOSA>
283.75

> <r_qp_FISA>
116.534

> <r_qp_PISA>
78.3721

> <r_qp_WPSA>
116.256

> <r_qp_volume>
1138.75

> <r_qp_donorHB>
2

> <r_qp_accptHB>
6.45

> <r_qp_dip^2/V>
0.0247078

> <r_qp_ACxDN^.5/SA>
0.0153328

> <r_qp_glob>
0.88647

> <r_qp_QPpolrz>
38.2409

> <r_qp_QPlogPC16>
10.8586

> <r_qp_QPlogPoct>
19.7913

> <r_qp_QPlogPw>
11.138

> <r_qp_QPlogPo/w>
3.39227

> <r_qp_QPlogS>
-4.86139

> <r_qp_CIQPlogS>
-5.54089

> <r_qp_QPlogHERG>
-3.74278

> <r_qp_QPPCaco>
777.696

> <r_qp_QPlogBB>
-0.320675

> <r_qp_QPPMDCK>
1633.73

> <r_qp_QPlogKp>
-3.10311

> <r_qp_IP(eV)>
10.4062

> <r_qp_EA(eV)>
0.715624

> <i_qp_#metab>
4

> <r_qp_QPlogKhsa>
0.366524

> <i_qp_HumanOralAbsorption>
3

> <r_qp_PercentHumanOralAbsorption>
100

> <r_qp_SAfluorine>
50.6232

> <r_qp_SAamideO>
0

> <r_qp_PSA>
78.5861

> <i_qp_#NandO>
4

> <i_qp_RuleOfFive>
0

> <i_qp_RuleOfThree>
0

> <i_qp_#ringatoms>
17

> <i_qp_#in34>
0

> <i_qp_#in56>
17

> <i_qp_#noncon>
12

> <i_qp_#nonHatm>
29

> <r_qp_Jm>
0.00465437

> <stars>
0

> <logP>
3.39227

> <Caco>
777.696

> <MDCK>
1633.73

> <HumanOralAbsorption>
3

> <PercentHumanOralAbsorption>
100.0

> <RuleOfFive>
0

> <base>
fda.sdf

$$$$
Molecule_0
                    3D
 Schrodinger Suite 2022-3.
 27 28  0  0  1  0            999 V2000
   -4.0555  -10.9733   35.3816 C   0  0  0  0  0  0
   -4.8372   -9.9403   34.8643 C   0  0  0  0  0  0
   -4.3326  -11.4914   36.6466 C   0  0  0  0  0  0
   -5.8960   -9.4253   35.6123 C   0  0  0  0  0  0
   -5.3915  -10.9764   37.3945 C   0  0  0  0  0  0
   -6.1732   -9.9434   36.8773 C   0  0  0  0  0  0
   -6.8697   -8.2362   38.5612 C   0  0  0  0  0  0
   -8.4687   -7.4021   37.1678 C   0  0  0  0  0  0
   -7.3001   -9.3954   37.6742 C   0  0  1  0  0  0
   -6.4560   -4.9874   38.1737 C   0  0  0  0  0  0
   -7.4845   -5.8289   38.8497 C   0  0  0  0  0  0
   -8.2853   -8.7477   36.8418 N   0  0  0  0  0  0
   -7.6039   -7.1234   38.2097 N   0  0  0  0  0  0
   -6.0102   -8.3152   39.4296 O   0  0  0  0  0  0
   -9.2519   -6.6380   36.6188 O   0  0  0  0  0  0
   -3.2319  -11.3750   34.7985 H   0  0  0  0  0  0
   -4.6221   -9.5374   33.8789 H   0  0  0  0  0  0
   -3.7251  -12.2963   37.0492 H   0  0  0  0  0  0
   -6.4995   -8.6203   35.2012 H   0  0  0  0  0  0
   -5.6000  -11.3863   38.3793 H   0  0  0  0  0  0
   -7.7899  -10.1707   38.2684 H   0  0  0  0  0  0
   -5.4720   -5.4671   38.2122 H   0  0  0  0  0  0
   -6.7276   -4.8036   37.1285 H   0  0  0  0  0  0
   -6.3790   -4.0174   38.6794 H   0  0  0  0  0  0
   -8.4646   -5.3440   38.8077 H   0  0  0  0  0  0
   -7.2198   -5.9983   39.8975 H   0  0  0  0  0  0
   -8.8113   -9.2210   36.1135 H   0  0  0  0  0  0
  1  2  2  0  0  0
  1  3  1  0  0  0
  1 16  1  0  0  0
  2  4  1  0  0  0
  2 17  1  0  0  0
  3  5  2  0  0  0
  3 18  1  0  0  0
  4  6  2  0  0  0
  4 19  1  0  0  0
  5  6  1  0  0  0
  5 20  1  0  0  0
  6  9  1  0  0  0
  7  9  1  0  0  0
  7 13  1  0  0  0
  7 14  2  0  0  0
  8 12  1  0  0  0
  8 13  1  0  0  0
  8 15  2  0  0  0
  9 12  1  0  0  0
  9 21  1  0  0  0
 10 11  1  0  0  0
 10 22  1  0  0  0
 10 23  1  0  0  0
 10 24  1  0  0  0
 11 13  1  0  0  0
 11 25  1  0  0  0
 11 26  1  0  0  0
 12 27  1  0  0  0
M  END
> <EON_Query>
60c

> <EON_ET_pb>
0.222

> <EON_ET_coul>
0.196

> <EON_ET_combo>
0.587

> <EON_ShapeTanimoto>
0.365

> <ROCS_ShapeQuery>
60c

> <ROCS_TanimotoCombo>
0.559

> <ROCS_ShapeTanimoto>
0.352

> <ROCS_ColorTanimoto>
0.207

> <ROCS_RefTversky>
0.405

> <ROCS_RefColorTversky>
0.264

> <ROCS_RefTverskyCombo>
0.669

> <ROCS_FitTversky>
0.729

> <ROCS_FitColorTversky>
0.49

> <ROCS_FitTverskyCombo>
1.219

> <ROCS_ColorScore>
-2.573

> <ROCS_Overlap>
518.903

> <ROCS_Rank>
3075

> <EON_Rank>
811

> <i_qp_#stars>
0

> <i_qp_#amine>
0

> <i_qp_#amidine>
0

> <i_qp_#acid>
0

> <i_qp_#amide>
0

> <i_qp_#rotor>
1

> <i_qp_#rtvFG>
0

> <i_qp_CNS>
0

> <r_qp_mol_MW>
204.228

> <r_qp_dipole>
3.15877

> <r_qp_SASA>
422.155

> <r_qp_FOSA>
140.463

> <r_qp_FISA>
101.669

> <r_qp_PISA>
180.022

> <r_qp_WPSA>
0

> <r_qp_volume>
703.524

> <r_qp_donorHB>
1

> <r_qp_accptHB>
3.5

> <r_qp_dip^2/V>
0.0141826

> <r_qp_ACxDN^.5/SA>
0.0082908

> <r_qp_glob>
0.906176

> <r_qp_QPpolrz>
23.0781

> <r_qp_QPlogPC16>
7.11584

> <r_qp_QPlogPoct>
10.791

> <r_qp_QPlogPw>
7.34263

> <r_qp_QPlogPo/w>
1.80109

> <r_qp_QPlogS>
-2.52855

> <r_qp_CIQPlogS>
-2.59561

> <r_qp_QPlogHERG>
-3.90869

> <r_qp_QPPCaco>
1075.89

> <r_qp_QPlogBB>
-0.322223

> <r_qp_QPPMDCK>
535.411

> <r_qp_QPlogKp>
-2.6631

> <r_qp_IP(eV)>
9.84106

> <r_qp_EA(eV)>
0.169166

> <i_qp_#metab>
2

> <r_qp_QPlogKhsa>
-0.143543

> <i_qp_HumanOralAbsorption>
3

> <r_qp_PercentHumanOralAbsorption>
91.7543

> <r_qp_SAfluorine>
0

> <r_qp_SAamideO>
0

> <r_qp_PSA>
69.6533

> <i_qp_#NandO>
4

> <i_qp_RuleOfFive>
0

> <i_qp_RuleOfThree>
0

> <i_qp_#ringatoms>
11

> <i_qp_#in34>
0

> <i_qp_#in56>
11

> <i_qp_#noncon>
1

> <i_qp_#nonHatm>
15

> <r_qp_Jm>
0.995962

> <stars>
0

> <logP>
1.80109

> <Caco>
1075.89

> <MDCK>
535.411

> <HumanOralAbsorption>
3

> <PercentHumanOralAbsorption>
91.7543

> <RuleOfFive>
0

> <base>
fda.sdf

$$$$
Reboxetine mesylate.cdx_65
                    3D
 Schrodinger Suite 2022-3.
 47 49  0  0  1  0            999 V2000
   -4.4244  -11.4995   35.0506 C   0  0  0  0  0  0
   -3.6889  -10.3166   35.1238 C   0  0  0  0  0  0
   -5.5687  -11.6588   35.8322 C   0  0  0  0  0  0
   -8.0681   -4.2129   39.0494 C   0  0  0  0  0  0
   -6.6915   -4.3656   38.8848 C   0  0  0  0  0  0
   -4.0975   -9.2930   35.9787 C   0  0  0  0  0  0
   -5.9774  -10.6352   36.6872 C   0  0  0  0  0  0
   -8.9436   -5.1582   38.5148 C   0  0  0  0  0  0
   -6.1902   -5.4634   38.1855 C   0  0  0  0  0  0
   -5.2418   -9.4523   36.7604 C   0  0  0  0  0  0
   -8.4423   -6.2561   37.8155 C   0  0  0  0  0  0
   -7.0656   -6.4087   37.6509 C   0  0  0  0  0  0
   -6.4820   -9.4244   41.7258 C   0  0  0  0  0  0
   -5.7141  -10.1105   39.4674 C   0  0  0  0  0  0
   -7.1358   -8.2202   41.0733 C   0  0  0  0  0  0
   -6.4117   -8.8720   38.9153 C   0  0  2  0  0  0
  -10.0412   -7.4250   35.0321 C   0  0  0  0  0  0
  -10.2565   -6.6990   36.3431 C   0  0  0  0  0  0
   -5.6847   -8.3446   37.6864 C   0  0  2  0  0  0
   -6.4213  -10.5258   40.7179 N   0  3  0  0  0  0
   -6.4141   -7.8313   39.9017 O   0  0  0  0  0  0
   -9.3075   -7.1716   37.2972 O   0  0  0  0  0  0
   -6.5616   -7.4806   36.9659 O   0  0  0  0  0  0
   -4.1069  -12.2959   34.3839 H   0  0  0  0  0  0
   -2.7985  -10.1919   34.5145 H   0  0  0  0  0  0
   -6.1423  -12.5792   35.7746 H   0  0  0  0  0  0
   -8.4585   -3.3580   39.5942 H   0  0  0  0  0  0
   -6.0100   -3.6297   39.3009 H   0  0  0  0  0  0
   -3.5181   -8.3749   36.0294 H   0  0  0  0  0  0
   -6.8701  -10.7683   37.2925 H   0  0  0  0  0  0
  -10.0150   -5.0335   38.6467 H   0  0  0  0  0  0
   -5.1168   -5.5754   38.0595 H   0  0  0  0  0  0
   -5.4501   -9.2168   42.0264 H   0  0  0  0  0  0
   -7.0544   -9.7936   42.5809 H   0  0  0  0  0  0
   -5.7566  -10.9567   38.7756 H   0  0  0  0  0  0
   -4.6745   -9.9120   39.7496 H   0  0  0  0  0  0
   -8.1811   -8.4200   40.8090 H   0  0  0  0  0  0
   -7.1266   -7.3726   41.7654 H   0  0  0  0  0  0
   -7.4491   -9.1010   38.6398 H   0  0  0  0  0  0
   -9.0353   -7.2406   34.6447 H   0  0  0  0  0  0
  -10.1782   -8.5036   35.1612 H   0  0  0  0  0  0
  -10.7726   -7.0984   34.2856 H   0  0  0  0  0  0
  -11.2643   -6.8875   36.7251 H   0  0  0  0  0  0
  -10.1185   -5.6216   36.2125 H   0  0  0  0  0  0
   -4.8304   -7.7402   38.0138 H   0  0  0  0  0  0
   -5.9362  -11.3028   41.1191 H   0  0  0  0  0  0
   -7.3542  -10.7999   40.4842 H   0  0  0  0  0  0
  1  2  2  0  0  0
  1  3  1  0  0  0
  1 24  1  0  0  0
  2  6  1  0  0  0
  2 25  1  0  0  0
  3  7  2  0  0  0
  3 26  1  0  0  0
  4  5  2  0  0  0
  4  8  1  0  0  0
  4 27  1  0  0  0
  5  9  1  0  0  0
  5 28  1  0  0  0
  6 10  2  0  0  0
  6 29  1  0  0  0
  7 10  1  0  0  0
  7 30  1  0  0  0
  8 11  2  0  0  0
  8 31  1  0  0  0
  9 12  2  0  0  0
  9 32  1  0  0  0
 10 19  1  0  0  0
 11 12  1  0  0  0
 11 22  1  0  0  0
 12 23  1  0  0  0
 13 15  1  0  0  0
 13 20  1  0  0  0
 13 33  1  0  0  0
 13 34  1  0  0  0
 14 16  1  0  0  0
 14 20  1  0  0  0
 14 35  1  0  0  0
 14 36  1  0  0  0
 15 21  1  0  0  0
 15 37  1  0  0  0
 15 38  1  0  0  0
 16 19  1  0  0  0
 16 21  1  0  0  0
 16 39  1  0  0  0
 17 18  1  0  0  0
 17 40  1  0  0  0
 17 41  1  0  0  0
 17 42  1  0  0  0
 18 22  1  0  0  0
 18 43  1  0  0  0
 18 44  1  0  0  0
 19 23  1  0  0  0
 19 45  1  0  0  0
 20 46  1  0  0  0
 20 47  1  0  0  0
M  CHG  1  20   1
M  END
> <EON_Query>
60c

> <EON_ET_pb>
0.067

> <EON_ET_coul>
0.04

> <EON_ET_combo>
0.586

> <EON_ShapeTanimoto>
0.52

> <ROCS_ShapeQuery>
60c

> <ROCS_TanimotoCombo>
0.757

> <ROCS_ShapeTanimoto>
0.559

> <ROCS_ColorTanimoto>
0.198

> <ROCS_RefTversky>
0.647

> <ROCS_RefColorTversky>
0.301

> <ROCS_RefTverskyCombo>
0.948

> <ROCS_FitTversky>
0.805

> <ROCS_FitColorTversky>
0.368

> <ROCS_FitTverskyCombo>
1.173

> <ROCS_ColorScore>
-2.978

> <ROCS_Overlap>
840.119

> <ROCS_Rank>
1047

> <EON_Rank>
812

> <i_qp_#stars>
0

> <i_qp_#amine>
1

> <i_qp_#amidine>
0

> <i_qp_#acid>
0

> <i_qp_#amide>
0

> <i_qp_#rotor>
6

> <i_qp_#rtvFG>
0

> <i_qp_CNS>
1

> <r_qp_mol_MW>
313.396

> <r_qp_dipole>
1.16209

> <r_qp_SASA>
576.01

> <r_qp_FOSA>
245.882

> <r_qp_FISA>
28.6631

> <r_qp_PISA>
301.465

> <r_qp_WPSA>
0

> <r_qp_volume>
1034.57

> <r_qp_donorHB>
1

> <r_qp_accptHB>
4.7

> <r_qp_dip^2/V>
0.00130533

> <r_qp_ACxDN^.5/SA>
0.00815958

> <r_qp_glob>
0.858833

> <r_qp_QPpolrz>
34.276

> <r_qp_QPlogPC16>
10.4154

> <r_qp_QPlogPoct>
14.8004

> <r_qp_QPlogPw>
8.1214

> <r_qp_QPlogPo/w>
3.44545

> <r_qp_QPlogS>
-2.90663

> <r_qp_CIQPlogS>
-3.48197

> <r_qp_QPlogHERG>
-5.98007

> <r_qp_QPPCaco>
1321.26

> <r_qp_QPlogBB>
0.341335

> <r_qp_QPPMDCK>
739.611

> <r_qp_QPlogKp>
-2.47233

> <r_qp_IP(eV)>
9.08878

> <r_qp_EA(eV)>
-0.041051

> <i_qp_#metab>
5

> <r_qp_QPlogKhsa>
0.278497

> <i_qp_HumanOralAbsorption>
3

> <r_qp_PercentHumanOralAbsorption>
100

> <r_qp_SAfluorine>
0

> <r_qp_SAamideO>
0

> <r_qp_PSA>
36.2627

> <i_qp_#NandO>
4

> <i_qp_RuleOfFive>
0

> <i_qp_RuleOfThree>
0

> <i_qp_#ringatoms>
18

> <i_qp_#in34>
0

> <i_qp_#in56>
18

> <i_qp_#noncon>
4

> <i_qp_#nonHatm>
23

> <r_qp_Jm>
1.36257

> <stars>
0

> <logP>
3.44545

> <Caco>
1321.26

> <MDCK>
739.611

> <HumanOralAbsorption>
3

> <PercentHumanOralAbsorption>
100.0

> <RuleOfFive>
0

> <base>
fda.sdf

$$$$
Fluoxetine hydrochloride.cdx_100
                    3D
 Schrodinger Suite 2022-3.
 41 42  0  0  1  0            999 V2000
   -4.2931  -10.8273   35.1787 C   0  0  0  0  0  0
   -3.6931   -9.9454   36.0775 C   0  0  0  0  0  0
   -5.5414  -11.3775   35.4696 C   0  0  0  0  0  0
   -4.3412   -9.6139   37.2673 C   0  0  0  0  0  0
   -6.1895  -11.0461   36.6595 C   0  0  0  0  0  0
   -8.0964   -6.6167   36.9025 C   0  0  0  0  0  0
   -7.6300   -5.2487   38.8384 C   0  0  0  0  0  0
   -7.3130   -7.6397   37.4366 C   0  0  0  0  0  0
   -6.8465   -6.2718   39.3726 C   0  0  0  0  0  0
   -5.5895  -10.1642   37.5583 C   0  0  0  0  0  0
   -8.2549   -5.4212   37.6034 C   0  0  0  0  0  0
   -6.6881   -7.4673   38.6717 C   0  0  0  0  0  0
   -6.8382   -8.4354   42.9276 C   0  0  0  0  0  0
   -5.9548  -10.7388   40.0198 C   0  0  0  0  0  0
   -6.6454  -10.3330   41.3149 C   0  0  0  0  0  0
   -6.2921   -9.8057   38.8471 C   0  0  1  0  0  0
   -9.0929   -4.3276   37.0329 C   0  0  0  0  0  0
   -6.2563   -8.9421   41.6550 N   0  3  0  0  0  0
   -5.9213   -8.4707   39.1956 O   0  0  0  0  0  0
   -9.6427   -4.6346   35.8205 F   0  0  0  0  0  0
  -10.1498   -3.9786   37.8247 F   0  0  0  0  0  0
   -8.3886   -3.1754   36.8338 F   0  0  0  0  0  0
   -3.7889  -11.0842   34.2517 H   0  0  0  0  0  0
   -2.7216   -9.5160   35.8506 H   0  0  0  0  0  0
   -6.0094  -12.0634   34.7695 H   0  0  0  0  0  0
   -3.8661   -8.9261   37.9617 H   0  0  0  0  0  0
   -7.1619  -11.4799   36.8777 H   0  0  0  0  0  0
   -8.5796   -6.7596   35.9397 H   0  0  0  0  0  0
   -7.7478   -4.3205   39.3916 H   0  0  0  0  0  0
   -7.1936   -8.5690   36.8859 H   0  0  0  0  0  0
   -6.3627   -6.1315   40.3351 H   0  0  0  0  0  0
   -6.4855   -7.4125   43.0721 H   0  0  0  0  0  0
   -7.9254   -8.4662   42.8335 H   0  0  0  0  0  0
   -6.4954   -9.0863   43.7342 H   0  0  0  0  0  0
   -6.2520  -11.7613   39.7503 H   0  0  0  0  0  0
   -4.8680  -10.7863   40.1690 H   0  0  0  0  0  0
   -7.7353  -10.3380   41.2270 H   0  0  0  0  0  0
   -6.3394  -10.9614   42.1562 H   0  0  0  0  0  0
   -7.3776   -9.7971   38.6899 H   0  0  0  0  0  0
   -6.5569   -8.3428   40.9130 H   0  0  0  0  0  0
   -5.2598   -8.9055   41.7302 H   0  0  0  0  0  0
  1  2  2  0  0  0
  1  3  1  0  0  0
  1 23  1  0  0  0
  2  4  1  0  0  0
  2 24  1  0  0  0
  3  5  2  0  0  0
  3 25  1  0  0  0
  4 10  2  0  0  0
  4 26  1  0  0  0
  5 10  1  0  0  0
  5 27  1  0  0  0
  6  8  2  0  0  0
  6 11  1  0  0  0
  6 28  1  0  0  0
  7  9  1  0  0  0
  7 11  2  0  0  0
  7 29  1  0  0  0
  8 12  1  0  0  0
  8 30  1  0  0  0
  9 12  2  0  0  0
  9 31  1  0  0  0
 10 16  1  0  0  0
 11 17  1  0  0  0
 12 19  1  0  0  0
 13 18  1  0  0  0
 13 32  1  0  0  0
 13 33  1  0  0  0
 13 34  1  0  0  0
 14 15  1  0  0  0
 14 16  1  0  0  0
 14 35  1  0  0  0
 14 36  1  0  0  0
 15 18  1  0  0  0
 15 37  1  0  0  0
 15 38  1  0  0  0
 16 19  1  0  0  0
 16 39  1  0  0  0
 17 20  1  0  0  0
 17 21  1  0  0  0
 17 22  1  0  0  0
 18 40  1  0  0  0
 18 41  1  0  0  0
M  CHG  1  18   1
M  END
> <EON_Query>
60c

> <EON_ET_pb>
0.06

> <EON_ET_coul>
0.018

> <EON_ET_combo>
0.584

> <EON_ShapeTanimoto>
0.524

> <ROCS_ShapeQuery>
60c

> <ROCS_TanimotoCombo>
0.781

> <ROCS_ShapeTanimoto>
0.624

> <ROCS_ColorTanimoto>
0.157

> <ROCS_RefTversky>
0.678

> <ROCS_RefColorTversky>
0.208

> <ROCS_RefTverskyCombo>
0.886

> <ROCS_FitTversky>
0.888

> <ROCS_FitColorTversky>
0.387

> <ROCS_FitTverskyCombo>
1.276

> <ROCS_ColorScore>
-2.033

> <ROCS_Overlap>
878.11

> <ROCS_Rank>
799

> <EON_Rank>
832

> <i_qp_#stars>
0

> <i_qp_#amine>
1

> <i_qp_#amidine>
0

> <i_qp_#acid>
0

> <i_qp_#amide>
0

> <i_qp_#rotor>
6

> <i_qp_#rtvFG>
0

> <i_qp_CNS>
2

> <r_qp_mol_MW>
309.331

> <r_qp_dipole>
5.9025

> <r_qp_SASA>
560.322

> <r_qp_FOSA>
162.822

> <r_qp_FISA>
8.19747

> <r_qp_PISA>
270.312

> <r_qp_WPSA>
118.991

> <r_qp_volume>
984.398

> <r_qp_donorHB>
1

> <r_qp_accptHB>
2.25

> <r_qp_dip^2/V>
0.0353917

> <r_qp_ACxDN^.5/SA>
0.00401555

> <r_qp_glob>
0.854099

> <r_qp_QPpolrz>
31.9705

> <r_qp_QPlogPC16>
8.78631

> <r_qp_QPlogPoct>
13.5463

> <r_qp_QPlogPw>
5.36099

> <r_qp_QPlogPo/w>
4.68654

> <r_qp_QPlogS>
-3.97937

> <r_qp_CIQPlogS>
-4.24198

> <r_qp_QPlogHERG>
-5.90811

> <r_qp_QPPCaco>
2065.68

> <r_qp_QPlogBB>
0.8175

> <r_qp_QPPMDCK>
5377.83

> <r_qp_QPlogKp>
-2.20489

> <r_qp_IP(eV)>
9.24402

> <r_qp_EA(eV)>
0.20524

> <i_qp_#metab>
4

> <r_qp_QPlogKhsa>
0.608407

> <i_qp_HumanOralAbsorption>
3

> <r_qp_PercentHumanOralAbsorption>
100

> <r_qp_SAfluorine>
118.991

> <r_qp_SAamideO>
0

> <r_qp_PSA>
14.2523

> <i_qp_#NandO>
2

> <i_qp_RuleOfFive>
0

> <i_qp_RuleOfThree>
0

> <i_qp_#ringatoms>
12

> <i_qp_#in34>
0

> <i_qp_#in56>
12

> <i_qp_#noncon>
0

> <i_qp_#nonHatm>
22

> <r_qp_Jm>
0.202376

> <stars>
0

> <logP>
4.68654

> <Caco>
2065.68

> <MDCK>
5377.83

> <HumanOralAbsorption>
3

> <PercentHumanOralAbsorption>
100.0

> <RuleOfFive>
0

> <base>
fda.sdf

$$$$
BindingDB_50136166_mol_1_100
                    3D
 Schrodinger Suite 2022-3.
 41 42  0  0  1  0            999 V2000
   -4.2931  -10.8273   35.1787 C   0  0  0  0  0  0
   -3.6931   -9.9454   36.0775 C   0  0  0  0  0  0
   -5.5414  -11.3775   35.4696 C   0  0  0  0  0  0
   -4.3412   -9.6139   37.2673 C   0  0  0  0  0  0
   -6.1895  -11.0461   36.6595 C   0  0  0  0  0  0
   -8.0964   -6.6167   36.9025 C   0  0  0  0  0  0
   -7.6300   -5.2487   38.8384 C   0  0  0  0  0  0
   -7.3130   -7.6397   37.4366 C   0  0  0  0  0  0
   -6.8465   -6.2718   39.3726 C   0  0  0  0  0  0
   -5.5895  -10.1642   37.5583 C   0  0  0  0  0  0
   -8.2549   -5.4212   37.6034 C   0  0  0  0  0  0
   -6.6881   -7.4673   38.6717 C   0  0  0  0  0  0
   -6.8382   -8.4354   42.9276 C   0  0  0  0  0  0
   -5.9548  -10.7388   40.0198 C   0  0  0  0  0  0
   -6.6454  -10.3330   41.3149 C   0  0  0  0  0  0
   -6.2921   -9.8057   38.8471 C   0  0  1  0  0  0
   -9.0929   -4.3276   37.0329 C   0  0  0  0  0  0
   -6.2563   -8.9421   41.6550 N   0  3  0  0  0  0
   -5.9213   -8.4707   39.1956 O   0  0  0  0  0  0
   -9.6427   -4.6346   35.8205 F   0  0  0  0  0  0
  -10.1498   -3.9786   37.8247 F   0  0  0  0  0  0
   -8.3886   -3.1754   36.8338 F   0  0  0  0  0  0
   -3.7889  -11.0842   34.2517 H   0  0  0  0  0  0
   -2.7216   -9.5160   35.8506 H   0  0  0  0  0  0
   -6.0094  -12.0634   34.7695 H   0  0  0  0  0  0
   -3.8661   -8.9261   37.9617 H   0  0  0  0  0  0
   -7.1619  -11.4799   36.8777 H   0  0  0  0  0  0
   -8.5796   -6.7596   35.9397 H   0  0  0  0  0  0
   -7.7478   -4.3205   39.3916 H   0  0  0  0  0  0
   -7.1936   -8.5690   36.8859 H   0  0  0  0  0  0
   -6.3627   -6.1315   40.3351 H   0  0  0  0  0  0
   -6.4855   -7.4125   43.0721 H   0  0  0  0  0  0
   -7.9254   -8.4662   42.8335 H   0  0  0  0  0  0
   -6.4954   -9.0863   43.7342 H   0  0  0  0  0  0
   -6.2520  -11.7613   39.7503 H   0  0  0  0  0  0
   -4.8680  -10.7863   40.1690 H   0  0  0  0  0  0
   -7.7353  -10.3380   41.2270 H   0  0  0  0  0  0
   -6.3394  -10.9614   42.1562 H   0  0  0  0  0  0
   -7.3776   -9.7971   38.6899 H   0  0  0  0  0  0
   -6.5569   -8.3428   40.9130 H   0  0  0  0  0  0
   -5.2598   -8.9055   41.7302 H   0  0  0  0  0  0
  1  2  2  0  0  0
  1  3  1  0  0  0
  1 23  1  0  0  0
  2  4  1  0  0  0
  2 24  1  0  0  0
  3  5  2  0  0  0
  3 25  1  0  0  0
  4 10  2  0  0  0
  4 26  1  0  0  0
  5 10  1  0  0  0
  5 27  1  0  0  0
  6  8  2  0  0  0
  6 11  1  0  0  0
  6 28  1  0  0  0
  7  9  1  0  0  0
  7 11  2  0  0  0
  7 29  1  0  0  0
  8 12  1  0  0  0
  8 30  1  0  0  0
  9 12  2  0  0  0
  9 31  1  0  0  0
 10 16  1  0  0  0
 11 17  1  0  0  0
 12 19  1  0  0  0
 13 18  1  0  0  0
 13 32  1  0  0  0
 13 33  1  0  0  0
 13 34  1  0  0  0
 14 15  1  0  0  0
 14 16  1  0  0  0
 14 35  1  0  0  0
 14 36  1  0  0  0
 15 18  1  0  0  0
 15 37  1  0  0  0
 15 38  1  0  0  0
 16 19  1  0  0  0
 16 39  1  0  0  0
 17 20  1  0  0  0
 17 21  1  0  0  0
 17 22  1  0  0  0
 18 40  1  0  0  0
 18 41  1  0  0  0
M  CHG  1  18   1
M  END
> <EON_Query>
60c

> <EON_ET_pb>
0.06

> <EON_ET_coul>
0.018

> <EON_ET_combo>
0.584

> <EON_ShapeTanimoto>
0.524

> <ROCS_ShapeQuery>
60c

> <ROCS_TanimotoCombo>
0.781

> <ROCS_ShapeTanimoto>
0.624

> <ROCS_ColorTanimoto>
0.157

> <ROCS_RefTversky>
0.678

> <ROCS_RefColorTversky>
0.208

> <ROCS_RefTverskyCombo>
0.886

> <ROCS_FitTversky>
0.888

> <ROCS_FitColorTversky>
0.387

> <ROCS_FitTverskyCombo>
1.276

> <ROCS_ColorScore>
-2.033

> <ROCS_Overlap>
878.11

> <ROCS_Rank>
800

> <EON_Rank>
833

> <i_qp_#stars>
0

> <i_qp_#amine>
1

> <i_qp_#amidine>
0

> <i_qp_#acid>
0

> <i_qp_#amide>
0

> <i_qp_#rotor>
6

> <i_qp_#rtvFG>
0

> <i_qp_CNS>
2

> <r_qp_mol_MW>
309.331

> <r_qp_dipole>
5.9025

> <r_qp_SASA>
560.322

> <r_qp_FOSA>
162.822

> <r_qp_FISA>
8.19747

> <r_qp_PISA>
270.312

> <r_qp_WPSA>
118.991

> <r_qp_volume>
984.398

> <r_qp_donorHB>
1

> <r_qp_accptHB>
2.25

> <r_qp_dip^2/V>
0.0353917

> <r_qp_ACxDN^.5/SA>
0.00401555

> <r_qp_glob>
0.854099

> <r_qp_QPpolrz>
31.9705

> <r_qp_QPlogPC16>
8.78631

> <r_qp_QPlogPoct>
13.5463

> <r_qp_QPlogPw>
5.36099

> <r_qp_QPlogPo/w>
4.68654

> <r_qp_QPlogS>
-3.97937

> <r_qp_CIQPlogS>
-4.24198

> <r_qp_QPlogHERG>
-5.90811

> <r_qp_QPPCaco>
2065.68

> <r_qp_QPlogBB>
0.8175

> <r_qp_QPPMDCK>
5377.83

> <r_qp_QPlogKp>
-2.20489

> <r_qp_IP(eV)>
9.24402

> <r_qp_EA(eV)>
0.20524

> <i_qp_#metab>
4

> <r_qp_QPlogKhsa>
0.608407

> <i_qp_HumanOralAbsorption>
3

> <r_qp_PercentHumanOralAbsorption>
100

> <r_qp_SAfluorine>
118.991

> <r_qp_SAamideO>
0

> <r_qp_PSA>
14.2523

> <i_qp_#NandO>
2

> <i_qp_RuleOfFive>
0

> <i_qp_RuleOfThree>
0

> <i_qp_#ringatoms>
12

> <i_qp_#in34>
0

> <i_qp_#in56>
12

> <i_qp_#noncon>
0

> <i_qp_#nonHatm>
22

> <r_qp_Jm>
0.202376

> <stars>
0

> <logP>
4.68654

> <Caco>
2065.68

> <MDCK>
5377.83

> <HumanOralAbsorption>
3

> <PercentHumanOralAbsorption>
100.0

> <RuleOfFive>
0

> <base>
fda.sdf

$$$$
Molecule_1
                    3D
 Schrodinger Suite 2022-3.
 35 37  0  0  1  0            999 V2000
   -8.5093   -4.0253   38.1791 C   0  0  0  0  0  0
   -9.2969   -5.1652   38.3392 C   0  0  0  0  0  0
   -7.1438   -4.0759   38.4597 C   0  0  0  0  0  0
   -8.7192   -6.3559   38.7800 C   0  0  0  0  0  0
   -6.5660   -5.2664   38.9006 C   0  0  0  0  0  0
   -7.3537   -6.4065   39.0607 C   0  0  0  0  0  0
   -4.7709  -10.0020   36.5834 C   0  0  0  0  0  0
   -4.7555  -10.4821   37.8295 C   0  0  0  0  0  0
   -6.2985   -8.2117   37.1391 C   0  0  0  0  0  0
   -6.7327   -7.6848   39.5342 C   0  0  0  0  0  0
   -6.2489   -8.5345   38.5776 C   0  0  0  0  0  0
   -5.6108   -8.8981   36.2171 C   0  0  0  0  0  0
   -5.6096   -9.8902   38.9100 C   0  0  0  0  0  0
   -6.4449  -10.2051   41.0252 C   0  0  0  0  0  0
   -6.0732   -8.9147   41.6691 C   0  0  0  0  0  0
   -7.8870  -12.1601   40.9555 C   0  0  0  0  0  0
   -5.7172  -10.6342   39.9682 N   0  0  0  0  0  0
   -6.7145   -7.8441   40.9303 N   0  0  0  0  0  0
   -7.4285  -10.8649   41.5137 N   0  3  0  0  0  0
   -7.2056   -6.8249   41.8104 O   0  5  0  0  0  0
   -5.6902   -8.4596   34.5490 Cl  0  0  0  0  0  0
   -8.9588   -3.0987   37.8347 H   0  0  0  0  0  0
  -10.3599   -5.1264   38.1196 H   0  0  0  0  0  0
   -6.5302   -3.1887   38.3341 H   0  0  0  0  0  0
   -9.3461   -7.2362   38.9000 H   0  0  0  0  0  0
   -5.5003   -5.2899   39.1153 H   0  0  0  0  0  0
   -4.1202  -10.4399   35.8330 H   0  0  0  0  0  0
   -4.0910  -11.2970   38.0984 H   0  0  0  0  0  0
   -6.9303   -7.3920   36.8086 H   0  0  0  0  0  0
   -6.4271   -8.9132   42.7081 H   0  0  0  0  0  0
   -4.9788   -8.8171   41.7033 H   0  0  0  0  0  0
   -8.6378  -11.9537   40.1908 H   0  0  0  0  0  0
   -8.3147  -12.7497   41.7684 H   0  0  0  0  0  0
   -7.0242  -12.6694   40.5225 H   0  0  0  0  0  0
   -7.9085  -10.4898   42.3068 H   0  0  0  0  0  0
  1  2  2  0  0  0
  1  3  1  0  0  0
  1 22  1  0  0  0
  2  4  1  0  0  0
  2 23  1  0  0  0
  3  5  2  0  0  0
  3 24  1  0  0  0
  4  6  2  0  0  0
  4 25  1  0  0  0
  5  6  1  0  0  0
  5 26  1  0  0  0
  6 10  1  0  0  0
  7  8  2  0  0  0
  7 12  1  0  0  0
  7 27  1  0  0  0
  8 13  1  0  0  0
  8 28  1  0  0  0
  9 11  1  0  0  0
  9 12  2  0  0  0
  9 29  1  0  0  0
 10 11  2  0  0  0
 10 18  1  0  0  0
 11 13  1  0  0  0
 12 21  1  0  0  0
 13 17  2  0  0  0
 14 15  1  0  0  0
 14 17  1  0  0  0
 14 19  2  0  0  0
 15 18  1  0  0  0
 15 30  1  0  0  0
 15 31  1  0  0  0
 16 19  1  0  0  0
 16 32  1  0  0  0
 16 33  1  0  0  0
 16 34  1  0  0  0
 18 20  1  0  0  0
 19 35  1  0  0  0
M  CHG  2  19   1  20  -1
M  END
> <EON_Query>
60c

> <EON_ET_pb>
0.17

> <EON_ET_coul>
0.216

> <EON_ET_combo>
0.582

> <EON_ShapeTanimoto>
0.412

> <ROCS_ShapeQuery>
60c

> <ROCS_TanimotoCombo>
0.667

> <ROCS_ShapeTanimoto>
0.543

> <ROCS_ColorTanimoto>
0.124

> <ROCS_RefTversky>
0.614

> <ROCS_RefColorTversky>
0.19

> <ROCS_RefTverskyCombo>
0.804

> <ROCS_FitTversky>
0.824

> <ROCS_FitColorTversky>
0.262

> <ROCS_FitTverskyCombo>
1.086

> <ROCS_ColorScore>
-1.873

> <ROCS_Overlap>
795.147

> <ROCS_Rank>
2213

> <EON_Rank>
841

> <i_qp_#stars>
0

> <i_qp_#amine>
0

> <i_qp_#amidine>
0

> <i_qp_#acid>
0

> <i_qp_#amide>
0

> <i_qp_#rotor>
2

> <i_qp_#rtvFG>
1

> <i_qp_CNS>
1

> <r_qp_mol_MW>
299.759

> <r_qp_dipole>
3.37413

> <r_qp_SASA>
548.145

> <r_qp_FOSA>
132.794

> <r_qp_FISA>
66.6295

> <r_qp_PISA>
277.648

> <r_qp_WPSA>
71.0745

> <r_qp_volume>
943.348

> <r_qp_donorHB>
1

> <r_qp_accptHB>
4.7

> <r_qp_dip^2/V>
0.0120685

> <r_qp_ACxDN^.5/SA>
0.00857437

> <r_qp_glob>
0.848628

> <r_qp_QPpolrz>
32.9661

> <r_qp_QPlogPC16>
10.1036

> <r_qp_QPlogPoct>
15.0675

> <r_qp_QPlogPw>
9.05787

> <r_qp_QPlogPo/w>
3.37619

> <r_qp_QPlogS>
-4.62346

> <r_qp_CIQPlogS>
-4.09195

> <r_qp_QPlogHERG>
-5.30546

> <r_qp_QPPCaco>
2312.34

> <r_qp_QPlogBB>
5.62284E-4

> <r_qp_QPPMDCK>
3000.5

> <r_qp_QPlogKp>
-1.57739

> <r_qp_IP(eV)>
8.17454

> <r_qp_EA(eV)>
1.01957

> <i_qp_#metab>
1

> <r_qp_QPlogKhsa>
0.20151

> <i_qp_HumanOralAbsorption>
3

> <r_qp_PercentHumanOralAbsorption>
100

> <r_qp_SAfluorine>
0

> <r_qp_SAamideO>
0

> <r_qp_PSA>
53.7047

> <i_qp_#NandO>
4

> <i_qp_RuleOfFive>
0

> <i_qp_RuleOfThree>
0

> <i_qp_#ringatoms>
17

> <i_qp_#in34>
0

> <i_qp_#in56>
12

> <i_qp_#noncon>
1

> <i_qp_#nonHatm>
21

> <r_qp_Jm>
0.207032

> <stars>
0

> <logP>
3.37619

> <Caco>
2312.34

> <MDCK>
3000.5

> <HumanOralAbsorption>
3

> <PercentHumanOralAbsorption>
100.0

> <RuleOfFive>
0

> <base>
fda.sdf

$$$$
Loxapine_1
                    3D
 Schrodinger Suite 2022-3.
 43 46  0  0  1  0            999 V2000
   -8.8209   -4.5647   37.7235 C   0  0  0  0  0  0
   -8.5768   -4.2329   39.0518 C   0  0  0  0  0  0
   -8.1239   -5.6187   37.1282 C   0  0  0  0  0  0
   -7.6300   -4.9491   39.7784 C   0  0  0  0  0  0
   -6.1993   -8.3132   41.5139 C   0  0  0  0  0  0
   -6.3557   -9.6572   41.8366 C   0  0  0  0  0  0
   -6.3055  -10.2085   39.4856 C   0  0  0  0  0  0
   -6.1370   -8.8570   39.1357 C   0  0  0  0  0  0
   -7.1919   -6.3787   37.8533 C   0  0  0  0  0  0
   -6.1119   -7.9226   40.1727 C   0  0  0  0  0  0
   -6.9480   -6.0175   39.1826 C   0  0  0  0  0  0
   -6.4152  -10.6056   40.8212 C   0  0  0  0  0  0
   -5.9916   -8.4681   37.7177 C   0  0  0  0  0  0
   -5.6048   -9.4209   35.4864 C   0  0  0  0  0  0
   -4.1749  -10.0903   37.3951 C   0  0  0  0  0  0
   -5.7591  -10.8771   35.0732 C   0  0  0  0  0  0
   -4.3127  -11.5540   37.0030 C   0  0  0  0  0  0
   -4.5700  -13.0737   35.0373 C   0  0  0  0  0  0
   -5.3043   -9.3103   36.9074 N   0  0  0  0  0  0
   -6.5299   -7.3694   37.1839 N   0  3  0  0  0  0
   -4.5296  -11.6468   35.5073 N   0  3  0  0  0  0
   -5.9449   -6.5848   39.9300 O   0  0  0  0  0  0
   -6.6286  -12.2689   41.2095 Cl  0  0  0  0  0  0
   -9.5583   -4.0103   37.1506 H   0  0  0  0  0  0
   -9.1352   -3.4309   39.5253 H   0  0  0  0  0  0
   -8.3067   -5.8388   36.0782 H   0  0  0  0  0  0
   -7.4338   -4.6808   40.8132 H   0  0  0  0  0  0
   -6.1367   -7.5733   42.3074 H   0  0  0  0  0  0
   -6.4268   -9.9491   42.8810 H   0  0  0  0  0  0
   -6.3459  -10.9658   38.7043 H   0  0  0  0  0  0
   -4.7871   -8.9473   34.9294 H   0  0  0  0  0  0
   -6.5226   -8.8726   35.2446 H   0  0  0  0  0  0
   -4.0958  -10.0102   38.4853 H   0  0  0  0  0  0
   -3.2587   -9.6624   36.9706 H   0  0  0  0  0  0
   -6.6239  -11.3444   35.5566 H   0  0  0  0  0  0
   -5.8436  -10.9700   33.9859 H   0  0  0  0  0  0
   -3.4022  -12.1120   37.2428 H   0  0  0  0  0  0
   -5.1767  -12.0220   37.4873 H   0  0  0  0  0  0
   -3.6590  -13.5652   35.3837 H   0  0  0  0  0  0
   -5.4571  -13.5423   35.4679 H   0  0  0  0  0  0
   -4.6208  -13.0650   33.9469 H   0  0  0  0  0  0
   -6.4396   -7.2602   36.1940 H   0  0  0  0  0  0
   -3.7421  -11.2133   35.0691 H   0  0  0  0  0  0
  1  2  2  0  0  0
  1  3  1  0  0  0
  1 24  1  0  0  0
  2  4  1  0  0  0
  2 25  1  0  0  0
  3  9  2  0  0  0
  3 26  1  0  0  0
  4 11  2  0  0  0
  4 27  1  0  0  0
  5  6  2  0  0  0
  5 10  1  0  0  0
  5 28  1  0  0  0
  6 12  1  0  0  0
  6 29  1  0  0  0
  7  8  1  0  0  0
  7 12  2  0  0  0
  7 30  1  0  0  0
  8 10  2  0  0  0
  8 13  1  0  0  0
  9 11  1  0  0  0
  9 20  1  0  0  0
 10 22  1  0  0  0
 11 22  1  0  0  0
 12 23  1  0  0  0
 13 19  1  0  0  0
 13 20  2  0  0  0
 14 16  1  0  0  0
 14 19  1  0  0  0
 14 31  1  0  0  0
 14 32  1  0  0  0
 15 17  1  0  0  0
 15 19  1  0  0  0
 15 33  1  0  0  0
 15 34  1  0  0  0
 16 21  1  0  0  0
 16 35  1  0  0  0
 16 36  1  0  0  0
 17 21  1  0  0  0
 17 37  1  0  0  0
 17 38  1  0  0  0
 18 21  1  0  0  0
 18 39  1  0  0  0
 18 40  1  0  0  0
 18 41  1  0  0  0
 20 42  1  0  0  0
 21 43  1  0  0  0
M  CHG  2  20   1  21   1
M  END
> <EON_Query>
60c

> <EON_ET_pb>
0.059

> <EON_ET_coul>
0.038

> <EON_ET_combo>
0.581

> <EON_ShapeTanimoto>
0.522

> <ROCS_ShapeQuery>
60c

> <ROCS_TanimotoCombo>
0.788

> <ROCS_ShapeTanimoto>
0.613

> <ROCS_ColorTanimoto>
0.175

> <ROCS_RefTversky>
0.693

> <ROCS_RefColorTversky>
0.284

> <ROCS_RefTverskyCombo>
0.978

> <ROCS_FitTversky>
0.842

> <ROCS_FitColorTversky>
0.312

> <ROCS_FitTverskyCombo>
1.154

> <ROCS_ColorScore>
-2.828

> <ROCS_Overlap>
901.635

> <ROCS_Rank>
735

> <EON_Rank>
851

> <i_qp_#stars>
0

> <i_qp_#amine>
1

> <i_qp_#amidine>
0

> <i_qp_#acid>
0

> <i_qp_#amide>
0

> <i_qp_#rotor>
0

> <i_qp_#rtvFG>
0

> <i_qp_CNS>
2

> <r_qp_mol_MW>
327.813

> <r_qp_dipole>
2.42823

> <r_qp_SASA>
559.335

> <r_qp_FOSA>
215.28

> <r_qp_FISA>
16.949

> <r_qp_PISA>
259.634

> <r_qp_WPSA>
67.4718

> <r_qp_volume>
997.017

> <r_qp_donorHB>
0

> <r_qp_accptHB>
4

> <r_qp_dip^2/V>
0.00591396

> <r_qp_ACxDN^.5/SA>
0

> <r_qp_glob>
0.862901

> <r_qp_QPpolrz>
36.2261

> <r_qp_QPlogPC16>
9.94454

> <r_qp_QPlogPoct>
14.1262

> <r_qp_QPlogPw>
6.9102

> <r_qp_QPlogPo/w>
3.59979

> <r_qp_QPlogS>
-3.79681

> <r_qp_CIQPlogS>
-3.95086

> <r_qp_QPlogHERG>
-5.71475

> <r_qp_QPPCaco>
1706.37

> <r_qp_QPlogBB>
0.975818

> <r_qp_QPPMDCK>
2283.93

> <r_qp_QPlogKp>
-2.97986

> <r_qp_IP(eV)>
8.14127

> <r_qp_EA(eV)>
0.819635

> <i_qp_#metab>
1

> <r_qp_QPlogKhsa>
0.44234

> <i_qp_HumanOralAbsorption>
3

> <r_qp_PercentHumanOralAbsorption>
100

> <r_qp_SAfluorine>
0

> <r_qp_SAamideO>
0

> <r_qp_PSA>
31.9656

> <i_qp_#NandO>
4

> <i_qp_RuleOfFive>
0

> <i_qp_RuleOfThree>
0

> <i_qp_#ringatoms>
21

> <i_qp_#in34>
0

> <i_qp_#in56>
18

> <i_qp_#noncon>
4

> <i_qp_#nonHatm>
23

> <r_qp_Jm>
0.0548223

> <stars>
0

> <logP>
3.59979

> <Caco>
1706.37

> <MDCK>
2283.93

> <HumanOralAbsorption>
3

> <PercentHumanOralAbsorption>
100.0

> <RuleOfFive>
0

> <base>
fda.sdf

$$$$
loxapine succinate.cdx_1
                    3D
 Schrodinger Suite 2022-3.
 43 46  0  0  1  0            999 V2000
   -8.8209   -4.5647   37.7235 C   0  0  0  0  0  0
   -8.5768   -4.2329   39.0518 C   0  0  0  0  0  0
   -8.1239   -5.6187   37.1282 C   0  0  0  0  0  0
   -7.6300   -4.9491   39.7784 C   0  0  0  0  0  0
   -6.1993   -8.3132   41.5139 C   0  0  0  0  0  0
   -6.3557   -9.6572   41.8366 C   0  0  0  0  0  0
   -6.3055  -10.2085   39.4856 C   0  0  0  0  0  0
   -6.1370   -8.8570   39.1357 C   0  0  0  0  0  0
   -7.1919   -6.3787   37.8533 C   0  0  0  0  0  0
   -6.1119   -7.9226   40.1727 C   0  0  0  0  0  0
   -6.9480   -6.0175   39.1826 C   0  0  0  0  0  0
   -6.4152  -10.6056   40.8212 C   0  0  0  0  0  0
   -5.9916   -8.4681   37.7177 C   0  0  0  0  0  0
   -5.6048   -9.4209   35.4864 C   0  0  0  0  0  0
   -4.1749  -10.0903   37.3951 C   0  0  0  0  0  0
   -5.7591  -10.8771   35.0732 C   0  0  0  0  0  0
   -4.3127  -11.5540   37.0030 C   0  0  0  0  0  0
   -4.5700  -13.0737   35.0373 C   0  0  0  0  0  0
   -5.3043   -9.3103   36.9074 N   0  0  0  0  0  0
   -6.5299   -7.3694   37.1839 N   0  3  0  0  0  0
   -4.5296  -11.6468   35.5073 N   0  3  0  0  0  0
   -5.9449   -6.5848   39.9300 O   0  0  0  0  0  0
   -6.6286  -12.2689   41.2095 Cl  0  0  0  0  0  0
   -9.5583   -4.0103   37.1506 H   0  0  0  0  0  0
   -9.1352   -3.4309   39.5253 H   0  0  0  0  0  0
   -8.3067   -5.8388   36.0782 H   0  0  0  0  0  0
   -7.4338   -4.6808   40.8132 H   0  0  0  0  0  0
   -6.1367   -7.5733   42.3074 H   0  0  0  0  0  0
   -6.4268   -9.9491   42.8810 H   0  0  0  0  0  0
   -6.3459  -10.9658   38.7043 H   0  0  0  0  0  0
   -4.7871   -8.9473   34.9294 H   0  0  0  0  0  0
   -6.5226   -8.8726   35.2446 H   0  0  0  0  0  0
   -4.0958  -10.0102   38.4853 H   0  0  0  0  0  0
   -3.2587   -9.6624   36.9706 H   0  0  0  0  0  0
   -6.6239  -11.3444   35.5566 H   0  0  0  0  0  0
   -5.8436  -10.9700   33.9859 H   0  0  0  0  0  0
   -3.4022  -12.1120   37.2428 H   0  0  0  0  0  0
   -5.1767  -12.0220   37.4873 H   0  0  0  0  0  0
   -3.6590  -13.5652   35.3837 H   0  0  0  0  0  0
   -5.4571  -13.5423   35.4679 H   0  0  0  0  0  0
   -4.6208  -13.0650   33.9469 H   0  0  0  0  0  0
   -6.4396   -7.2602   36.1940 H   0  0  0  0  0  0
   -3.7421  -11.2133   35.0691 H   0  0  0  0  0  0
  1  2  2  0  0  0
  1  3  1  0  0  0
  1 24  1  0  0  0
  2  4  1  0  0  0
  2 25  1  0  0  0
  3  9  2  0  0  0
  3 26  1  0  0  0
  4 11  2  0  0  0
  4 27  1  0  0  0
  5  6  2  0  0  0
  5 10  1  0  0  0
  5 28  1  0  0  0
  6 12  1  0  0  0
  6 29  1  0  0  0
  7  8  1  0  0  0
  7 12  2  0  0  0
  7 30  1  0  0  0
  8 10  2  0  0  0
  8 13  1  0  0  0
  9 11  1  0  0  0
  9 20  1  0  0  0
 10 22  1  0  0  0
 11 22  1  0  0  0
 12 23  1  0  0  0
 13 19  1  0  0  0
 13 20  2  0  0  0
 14 16  1  0  0  0
 14 19  1  0  0  0
 14 31  1  0  0  0
 14 32  1  0  0  0
 15 17  1  0  0  0
 15 19  1  0  0  0
 15 33  1  0  0  0
 15 34  1  0  0  0
 16 21  1  0  0  0
 16 35  1  0  0  0
 16 36  1  0  0  0
 17 21  1  0  0  0
 17 37  1  0  0  0
 17 38  1  0  0  0
 18 21  1  0  0  0
 18 39  1  0  0  0
 18 40  1  0  0  0
 18 41  1  0  0  0
 20 42  1  0  0  0
 21 43  1  0  0  0
M  CHG  2  20   1  21   1
M  END
> <EON_Query>
60c

> <EON_ET_pb>
0.059

> <EON_ET_coul>
0.038

> <EON_ET_combo>
0.581

> <EON_ShapeTanimoto>
0.522

> <ROCS_ShapeQuery>
60c

> <ROCS_TanimotoCombo>
0.788

> <ROCS_ShapeTanimoto>
0.613

> <ROCS_ColorTanimoto>
0.175

> <ROCS_RefTversky>
0.693

> <ROCS_RefColorTversky>
0.284

> <ROCS_RefTverskyCombo>
0.978

> <ROCS_FitTversky>
0.842

> <ROCS_FitColorTversky>
0.312

> <ROCS_FitTverskyCombo>
1.154

> <ROCS_ColorScore>
-2.828

> <ROCS_Overlap>
901.635

> <ROCS_Rank>
734

> <EON_Rank>
852

> <i_qp_#stars>
0

> <i_qp_#amine>
1

> <i_qp_#amidine>
0

> <i_qp_#acid>
0

> <i_qp_#amide>
0

> <i_qp_#rotor>
0

> <i_qp_#rtvFG>
0

> <i_qp_CNS>
2

> <r_qp_mol_MW>
327.813

> <r_qp_dipole>
2.42823

> <r_qp_SASA>
559.335

> <r_qp_FOSA>
215.28

> <r_qp_FISA>
16.949

> <r_qp_PISA>
259.634

> <r_qp_WPSA>
67.4718

> <r_qp_volume>
997.017

> <r_qp_donorHB>
0

> <r_qp_accptHB>
4

> <r_qp_dip^2/V>
0.00591396

> <r_qp_ACxDN^.5/SA>
0

> <r_qp_glob>
0.862901

> <r_qp_QPpolrz>
36.2261

> <r_qp_QPlogPC16>
9.94454

> <r_qp_QPlogPoct>
14.1262

> <r_qp_QPlogPw>
6.9102

> <r_qp_QPlogPo/w>
3.59979

> <r_qp_QPlogS>
-3.79681

> <r_qp_CIQPlogS>
-3.95086

> <r_qp_QPlogHERG>
-5.71475

> <r_qp_QPPCaco>
1706.37

> <r_qp_QPlogBB>
0.975818

> <r_qp_QPPMDCK>
2283.93

> <r_qp_QPlogKp>
-2.97986

> <r_qp_IP(eV)>
8.14127

> <r_qp_EA(eV)>
0.819635

> <i_qp_#metab>
1

> <r_qp_QPlogKhsa>
0.44234

> <i_qp_HumanOralAbsorption>
3

> <r_qp_PercentHumanOralAbsorption>
100

> <r_qp_SAfluorine>
0

> <r_qp_SAamideO>
0

> <r_qp_PSA>
31.9656

> <i_qp_#NandO>
4

> <i_qp_RuleOfFive>
0

> <i_qp_RuleOfThree>
0

> <i_qp_#ringatoms>
21

> <i_qp_#in34>
0

> <i_qp_#in56>
18

> <i_qp_#noncon>
4

> <i_qp_#nonHatm>
23

> <r_qp_Jm>
0.0548223

> <stars>
0

> <logP>
3.59979

> <Caco>
1706.37

> <MDCK>
2283.93

> <HumanOralAbsorption>
3

> <PercentHumanOralAbsorption>
100.0

> <RuleOfFive>
0

> <base>
fda.sdf

$$$$
S4691 Oxybenzone.cdx_3
                    3D
 Schrodinger Suite 2022-3.
 29 30  0  0  1  0            999 V2000
   -8.7958   -4.2846   37.6191 C   0  0  0  0  0  0
   -8.2414   -3.6376   38.7235 C   0  0  0  0  0  0
   -8.6432   -5.6630   37.4691 C   0  0  0  0  0  0
   -7.5342   -4.3690   39.6778 C   0  0  0  0  0  0
   -7.9360   -6.3944   38.4234 C   0  0  0  0  0  0
   -6.9360   -8.8118   41.4292 C   0  0  0  0  0  0
   -6.7640  -10.1935   41.3478 C   0  0  0  0  0  0
   -5.6150   -9.9262   39.2394 C   0  0  0  0  0  0
   -7.3816   -5.7474   39.5278 C   0  0  0  0  0  0
   -6.4477   -7.9872   40.4157 C   0  0  0  0  0  0
   -6.1035  -10.7508   40.2529 C   0  0  0  0  0  0
   -5.7872   -8.5444   39.3208 C   0  0  0  0  0  0
   -6.6442   -6.5098   40.5227 C   0  0  0  0  0  0
   -6.4623  -12.8828   41.2436 C   0  0  0  0  0  0
   -6.1490   -5.9397   41.5063 O   0  0  0  0  0  0
   -5.3027   -7.7559   38.3201 O   0  0  0  0  0  0
   -5.9369  -12.0994   40.1732 O   0  0  0  0  0  0
   -9.3464   -3.7151   36.8762 H   0  0  0  0  0  0
   -8.3601   -2.5643   38.8400 H   0  0  0  0  0  0
   -9.0751   -6.1668   36.6095 H   0  0  0  0  0  0
   -7.1063   -3.8547   40.5344 H   0  0  0  0  0  0
   -7.8234   -7.4679   38.2962 H   0  0  0  0  0  0
   -7.4522   -8.3895   42.2878 H   0  0  0  0  0  0
   -7.1473  -10.8300   42.1407 H   0  0  0  0  0  0
   -5.1027  -10.3611   38.3847 H   0  0  0  0  0  0
   -6.2613  -13.9403   41.0549 H   0  0  0  0  0  0
   -7.5390  -12.7144   41.3253 H   0  0  0  0  0  0
   -5.9768  -12.5826   42.1752 H   0  0  0  0  0  0
   -5.4925   -6.8235   38.5074 H   0  0  0  0  0  0
  1  2  2  0  0  0
  1  3  1  0  0  0
  1 18  1  0  0  0
  2  4  1  0  0  0
  2 19  1  0  0  0
  3  5  2  0  0  0
  3 20  1  0  0  0
  4  9  2  0  0  0
  4 21  1  0  0  0
  5  9  1  0  0  0
  5 22  1  0  0  0
  6  7  2  0  0  0
  6 10  1  0  0  0
  6 23  1  0  0  0
  7 11  1  0  0  0
  7 24  1  0  0  0
  8 11  2  0  0  0
  8 12  1  0  0  0
  8 25  1  0  0  0
  9 13  1  0  0  0
 10 12  2  0  0  0
 10 13  1  0  0  0
 11 17  1  0  0  0
 12 16  1  0  0  0
 13 15  2  0  0  0
 14 17  1  0  0  0
 14 26  1  0  0  0
 14 27  1  0  0  0
 14 28  1  0  0  0
 16 29  1  0  0  0
M  END
> <EON_Query>
60c

> <EON_ET_pb>
0.139

> <EON_ET_coul>
0.141

> <EON_ET_combo>
0.578

> <EON_ShapeTanimoto>
0.439

> <ROCS_ShapeQuery>
60c

> <ROCS_TanimotoCombo>
0.79

> <ROCS_ShapeTanimoto>
0.546

> <ROCS_ColorTanimoto>
0.244

> <ROCS_RefTversky>
0.57

> <ROCS_RefColorTversky>
0.321

> <ROCS_RefTverskyCombo>
0.891

> <ROCS_FitTversky>
0.926

> <ROCS_FitColorTversky>
0.507

> <ROCS_FitTverskyCombo>
1.432

> <ROCS_ColorScore>
-3.142

> <ROCS_Overlap>
733.535

> <ROCS_Rank>
725

> <EON_Rank>
885

> <i_qp_#stars>
0

> <i_qp_#amine>
0

> <i_qp_#amidine>
0

> <i_qp_#acid>
0

> <i_qp_#amide>
0

> <i_qp_#rotor>
4

> <i_qp_#rtvFG>
0

> <i_qp_CNS>
0

> <r_qp_mol_MW>
228.247

> <r_qp_dipole>
3.71371

> <r_qp_SASA>
443.959

> <r_qp_FOSA>
91.4292

> <r_qp_FISA>
74.7059

> <r_qp_PISA>
277.824

> <r_qp_WPSA>
0

> <r_qp_volume>
749.347

> <r_qp_donorHB>
0

> <r_qp_accptHB>
2.5

> <r_qp_dip^2/V>
0.0184049

> <r_qp_ACxDN^.5/SA>
0

> <r_qp_glob>
0.898692

> <r_qp_QPpolrz>
23.9197

> <r_qp_QPlogPC16>
7.79177

> <r_qp_QPlogPoct>
9.06463

> <r_qp_QPlogPw>
4.76552

> <r_qp_QPlogPo/w>
2.92962

> <r_qp_QPlogS>
-2.88231

> <r_qp_CIQPlogS>
-3.47975

> <r_qp_QPlogHERG>
-4.4962

> <r_qp_QPPCaco>
1938.49

> <r_qp_QPlogBB>
-0.294241

> <r_qp_QPPMDCK>
1011.73

> <r_qp_QPlogKp>
-1.5336

> <r_qp_IP(eV)>
9.27976

> <r_qp_EA(eV)>
0.770449

> <i_qp_#metab>
2

> <r_qp_QPlogKhsa>
-0.0452355

> <i_qp_HumanOralAbsorption>
3

> <r_qp_PercentHumanOralAbsorption>
100

> <r_qp_SAfluorine>
0

> <r_qp_SAamideO>
0

> <r_qp_PSA>
52.256

> <i_qp_#NandO>
3

> <i_qp_RuleOfFive>
0

> <i_qp_RuleOfThree>
0

> <i_qp_#ringatoms>
12

> <i_qp_#in34>
0

> <i_qp_#in56>
12

> <i_qp_#noncon>
0

> <i_qp_#nonHatm>
17

> <r_qp_Jm>
14.2819

> <stars>
0

> <logP>
2.92962

> <Caco>
1938.49

> <MDCK>
1011.73

> <HumanOralAbsorption>
3

> <PercentHumanOralAbsorption>
100.0

> <RuleOfFive>
0

> <base>
fda.sdf

$$$$
Molecule_25
                    3D
 Schrodinger Suite 2022-3.
 28 28  0  0  1  0            999 V2000
   -5.5944   -9.8194   41.0993 C   0  0  0  0  0  0
   -5.9828  -10.0467   39.7790 C   0  0  0  0  0  0
   -5.6868   -8.5380   41.6427 C   0  0  0  0  0  0
   -6.4635   -8.9926   39.0022 C   0  0  0  0  0  0
   -6.1674   -7.4839   40.8658 C   0  0  0  0  0  0
   -6.5558   -7.7112   39.5455 C   0  0  0  0  0  0
   -7.4746   -5.8935   42.0565 C   0  0  0  0  0  0
   -8.2196   -4.6018   37.1258 C   0  0  0  0  0  0
   -7.9717   -7.0256   37.7620 C   0  0  0  0  0  0
   -8.9450   -5.8713   37.5523 C   0  0  2  0  0  0
   -9.1752   -3.5619   36.9455 O   0  0  0  0  0  0
   -9.8608   -6.2261   36.5136 O   0  0  0  0  0  0
   -6.2517   -6.2370   41.4077 O   0  0  0  0  0  0
   -7.0281   -6.6845   38.7722 O   0  0  0  0  0  0
   -5.2203  -10.6403   41.7045 H   0  0  0  0  0  0
   -5.9109  -11.0441   39.3560 H   0  0  0  0  0  0
   -5.3828   -8.3676   42.6720 H   0  0  0  0  0  0
   -6.7627   -9.1763   37.9739 H   0  0  0  0  0  0
   -7.4086   -4.8737   42.4436 H   0  0  0  0  0  0
   -7.6633   -6.5935   42.8743 H   0  0  0  0  0  0
   -8.2903   -5.9539   41.3322 H   0  0  0  0  0  0
   -7.6949   -4.7447   36.1753 H   0  0  0  0  0  0
   -7.5075   -4.2786   37.8916 H   0  0  0  0  0  0
   -7.4188   -7.2578   36.8465 H   0  0  0  0  0  0
   -8.4950   -7.9269   38.0968 H   0  0  0  0  0  0
   -9.5437   -5.6895   38.4519 H   0  0  0  0  0  0
   -8.6794   -2.7729   36.6755 H   0  0  0  0  0  0
   -9.3275   -6.3685   35.7178 H   0  0  0  0  0  0
  1  2  2  0  0  0
  1  3  1  0  0  0
  1 15  1  0  0  0
  2  4  1  0  0  0
  2 16  1  0  0  0
  3  5  2  0  0  0
  3 17  1  0  0  0
  4  6  2  0  0  0
  4 18  1  0  0  0
  5  6  1  0  0  0
  5 13  1  0  0  0
  6 14  1  0  0  0
  7 13  1  0  0  0
  7 19  1  0  0  0
  7 20  1  0  0  0
  7 21  1  0  0  0
  8 10  1  0  0  0
  8 11  1  0  0  0
  8 22  1  0  0  0
  8 23  1  0  0  0
  9 10  1  0  0  0
  9 14  1  0  0  0
  9 24  1  0  0  0
  9 25  1  0  0  0
 10 12  1  0  0  0
 10 26  1  0  0  0
 11 27  1  0  0  0
 12 28  1  0  0  0
M  END
> <EON_Query>
60c

> <EON_ET_pb>
0.201

> <EON_ET_coul>
0.245

> <EON_ET_combo>
0.577

> <EON_ShapeTanimoto>
0.375

> <ROCS_ShapeQuery>
60c

> <ROCS_TanimotoCombo>
0.692

> <ROCS_ShapeTanimoto>
0.442

> <ROCS_ColorTanimoto>
0.25

> <ROCS_RefTversky>
0.458

> <ROCS_RefColorTversky>
0.346

> <ROCS_RefTverskyCombo>
0.804

> <ROCS_FitTversky>
0.925

> <ROCS_FitColorTversky>
0.476

> <ROCS_FitTverskyCombo>
1.401

> <ROCS_ColorScore>
-3.404

> <ROCS_Overlap>
585.119

> <ROCS_Rank>
1886

> <EON_Rank>
894

> <i_qp_#stars>
0

> <i_qp_#amine>
0

> <i_qp_#amidine>
0

> <i_qp_#acid>
0

> <i_qp_#amide>
0

> <i_qp_#rotor>
7

> <i_qp_#rtvFG>
0

> <i_qp_CNS>
0

> <r_qp_mol_MW>
198.218

> <r_qp_dipole>
2.43246

> <r_qp_SASA>
421.296

> <r_qp_FOSA>
164.306

> <r_qp_FISA>
98.4186

> <r_qp_PISA>
158.572

> <r_qp_WPSA>
0

> <r_qp_volume>
694.703

> <r_qp_donorHB>
2

> <r_qp_accptHB>
4.9

> <r_qp_dip^2/V>
0.00851708

> <r_qp_ACxDN^.5/SA>
0.0164484

> <r_qp_glob>
0.900417

> <r_qp_QPpolrz>
18.6677

> <r_qp_QPlogPC16>
7.03144

> <r_qp_QPlogPoct>
11.1123

> <r_qp_QPlogPw>
8.69248

> <r_qp_QPlogPo/w>
1.07543

> <r_qp_QPlogS>
-1.33651

> <r_qp_CIQPlogS>
-1.81502

> <r_qp_QPlogHERG>
-3.89959

> <r_qp_QPPCaco>
1155.04

> <r_qp_QPlogBB>
-0.667669

> <r_qp_QPPMDCK>
578.108

> <r_qp_QPlogKp>
-2.10268

> <r_qp_IP(eV)>
9.3192

> <r_qp_EA(eV)>
-0.0243783

> <i_qp_#metab>
4

> <r_qp_QPlogKhsa>
-0.629351

> <i_qp_HumanOralAbsorption>
3

> <r_qp_PercentHumanOralAbsorption>
88.0572

> <r_qp_SAfluorine>
0

> <r_qp_SAamideO>
0

> <r_qp_PSA>
59.3489

> <i_qp_#NandO>
4

> <i_qp_RuleOfFive>
0

> <i_qp_RuleOfThree>
0

> <i_qp_#ringatoms>
6

> <i_qp_#in34>
0

> <i_qp_#in56>
6

> <i_qp_#noncon>
0

> <i_qp_#nonHatm>
14

> <r_qp_Jm>
72.1028

> <stars>
0

> <logP>
1.07543

> <Caco>
1155.04

> <MDCK>
578.108

> <HumanOralAbsorption>
3

> <PercentHumanOralAbsorption>
88.0572

> <RuleOfFive>
0

> <base>
fda.sdf

$$$$
Molecule_0
                    3D
 Schrodinger Suite 2022-3.
 40 43  0  0  1  0            999 V2000
   -5.3336   -9.6923   35.1954 C   0  0  0  0  0  0
   -4.9261  -11.0115   34.9944 C   0  0  0  0  0  0
   -5.5170  -11.5314   37.2694 C   0  0  0  0  0  0
   -5.8550   -9.2737   36.4329 C   0  0  0  0  0  0
   -5.9284  -10.2050   37.4846 C   0  0  0  0  0  0
   -5.0223  -11.9327   36.0305 C   0  0  0  0  0  0
   -6.8100   -8.3914   39.0211 C   0  0  0  0  0  0
   -6.7587   -7.4887   38.0318 C   0  0  0  0  0  0
   -8.6427   -4.3285   37.6426 C   0  0  0  0  0  0
   -6.4266   -9.8259   38.8552 C   0  0  0  0  0  0
   -8.1637   -4.0616   39.0597 C   0  0  0  0  0  0
   -7.6038   -5.4235   39.4955 C   0  0  0  0  0  0
   -7.3457   -7.3930   35.5707 C   0  0  0  0  0  0
   -7.8897   -5.9649   35.7834 C   0  0  0  0  0  0
   -6.2833   -7.8255   36.6218 C   0  0  2  0  0  0
   -7.1778   -6.0519   38.1687 C   0  0  2  0  0  0
   -8.3646   -5.7615   37.2231 C   0  0  1  0  0  0
   -9.6443   -6.5712   37.5082 C   0  0  0  0  0  0
   -9.2026   -3.4945   36.9435 O   0  0  0  0  0  0
   -4.6261  -13.2202   35.8390 O   0  0  0  0  0  0
   -5.2339   -8.9887   34.3728 H   0  0  0  0  0  0
   -4.5310  -11.3104   34.0274 H   0  0  0  0  0  0
   -5.5785  -12.2542   38.0804 H   0  0  0  0  0  0
   -7.1612   -8.1011   40.0070 H   0  0  0  0  0  0
   -7.3006  -10.4439   39.0939 H   0  0  0  0  0  0
   -5.6424  -10.0543   39.5876 H   0  0  0  0  0  0
   -7.3762   -3.3031   39.0294 H   0  0  0  0  0  0
   -8.9888   -3.7419   39.6993 H   0  0  0  0  0  0
   -6.7654   -5.3069   40.1898 H   0  0  0  0  0  0
   -8.3760   -6.0118   40.0033 H   0  0  0  0  0  0
   -8.1822   -8.1042   35.5782 H   0  0  0  0  0  0
   -6.9219   -7.4416   34.5605 H   0  0  0  0  0  0
   -7.1018   -5.2399   35.5406 H   0  0  0  0  0  0
   -8.7046   -5.7720   35.0753 H   0  0  0  0  0  0
   -5.3796   -7.2212   36.4508 H   0  0  0  0  0  0
   -6.3050   -5.4596   37.8418 H   0  0  0  0  0  0
   -9.4830   -7.6040   37.2200 H   0  0  0  0  0  0
  -10.4642   -6.1537   36.9347 H   0  0  0  0  0  0
   -9.8711   -6.5164   38.5670 H   0  0  0  0  0  0
   -4.7548  -13.7366   36.6507 H   0  0  0  0  0  0
  1  2  2  0  0  0
  1  4  1  0  0  0
  1 21  1  0  0  0
  2  6  1  0  0  0
  2 22  1  0  0  0
  3  5  1  0  0  0
  3  6  2  0  0  0
  3 23  1  0  0  0
  4  5  2  0  0  0
  4 15  1  0  0  0
  5 10  1  0  0  0
  6 20  1  0  0  0
  7  8  2  0  0  0
  7 10  1  0  0  0
  7 24  1  0  0  0
  8 15  1  0  0  0
  8 16  1  0  0  0
  9 11  1  0  0  0
  9 17  1  0  0  0
  9 19  2  0  0  0
 10 25  1  0  0  0
 10 26  1  0  0  0
 11 12  1  0  0  0
 11 27  1  0  0  0
 11 28  1  0  0  0
 12 16  1  0  0  0
 12 29  1  0  0  0
 12 30  1  0  0  0
 13 14  1  0  0  0
 13 15  1  0  0  0
 13 31  1  0  0  0
 13 32  1  0  0  0
 14 17  1  0  0  0
 14 33  1  0  0  0
 14 34  1  0  0  0
 15 35  1  0  0  0
 16 17  1  0  0  0
 16 36  1  0  0  0
 17 18  1  0  0  0
 18 37  1  0  0  0
 18 38  1  0  0  0
 18 39  1  0  0  0
 20 40  1  0  0  0
M  END
> <EON_Query>
60c

> <EON_ET_pb>
0.069

> <EON_ET_coul>
0.057

> <EON_ET_combo>
0.577

> <EON_ShapeTanimoto>
0.508

> <ROCS_ShapeQuery>
60c

> <ROCS_TanimotoCombo>
0.86

> <ROCS_ShapeTanimoto>
0.507

> <ROCS_ColorTanimoto>
0.354

> <ROCS_RefTversky>
0.578

> <ROCS_RefColorTversky>
0.451

> <ROCS_RefTverskyCombo>
1.03

> <ROCS_FitTversky>
0.804

> <ROCS_FitColorTversky>
0.62

> <ROCS_FitTverskyCombo>
1.424

> <ROCS_ColorScore>
-4.447

> <ROCS_Overlap>
747.777

> <ROCS_Rank>
219

> <EON_Rank>
895

> <i_qp_#stars>
0

> <i_qp_#amine>
0

> <i_qp_#amidine>
0

> <i_qp_#acid>
0

> <i_qp_#amide>
0

> <i_qp_#rotor>
1

> <i_qp_#rtvFG>
0

> <i_qp_CNS>
0

> <r_qp_mol_MW>
268.355

> <r_qp_dipole>
4.46202

> <r_qp_SASA>
505.23

> <r_qp_FOSA>
273.902

> <r_qp_FISA>
96.8679

> <r_qp_PISA>
134.46

> <r_qp_WPSA>
0

> <r_qp_volume>
891.69

> <r_qp_donorHB>
1

> <r_qp_accptHB>
2.75

> <r_qp_dip^2/V>
0.0223279

> <r_qp_ACxDN^.5/SA>
0.00544307

> <r_qp_glob>
0.886786

> <r_qp_QPpolrz>
30.1734

> <r_qp_QPlogPC16>
8.48193

> <r_qp_QPlogPoct>
12.878

> <r_qp_QPlogPw>
6.46132

> <r_qp_QPlogPo/w>
3.16001

> <r_qp_QPlogS>
-4.85674

> <r_qp_CIQPlogS>
-4.04233

> <r_qp_QPlogHERG>
-4.00516

> <r_qp_QPPCaco>
1194.82

> <r_qp_QPlogBB>
-0.318009

> <r_qp_QPPMDCK>
599.659

> <r_qp_QPlogKp>
-2.7351

> <r_qp_IP(eV)>
8.97469

> <r_qp_EA(eV)>
-0.173266

> <i_qp_#metab>
5

> <r_qp_QPlogKhsa>
0.479766

> <i_qp_HumanOralAbsorption>
3

> <r_qp_PercentHumanOralAbsorption>
100

> <r_qp_SAfluorine>
0

> <r_qp_SAamideO>
0

> <r_qp_PSA>
48.9549

> <i_qp_#NandO>
2

> <i_qp_RuleOfFive>
0

> <i_qp_RuleOfThree>
0

> <i_qp_#ringatoms>
17

> <i_qp_#in34>
0

> <i_qp_#in56>
17

> <i_qp_#noncon>
8

> <i_qp_#nonHatm>
20

> <r_qp_Jm>
0.0230418

> <stars>
0

> <logP>
3.16001

> <Caco>
1194.82

> <MDCK>
599.659

> <HumanOralAbsorption>
3

> <PercentHumanOralAbsorption>
100.0

> <RuleOfFive>
0

> <base>
fda.sdf

$$$$
Molecule_18
                    3D
 Schrodinger Suite 2022-3.
 51 53  0  0  1  0            999 V2000
   -4.4828  -11.5306   35.1444 C   0  0  0  0  0  0
   -5.5635  -11.8447   35.9685 C   0  0  0  0  0  0
   -3.7407  -10.3729   35.3784 C   0  0  0  0  0  0
   -5.9023  -11.0010   37.0262 C   0  0  0  0  0  0
   -4.0796   -9.5291   36.4362 C   0  0  0  0  0  0
   -5.1604   -9.8432   37.2602 C   0  0  0  0  0  0
   -5.8312  -11.1167   41.4799 C   0  0  0  0  0  0
   -6.6791   -9.9085   41.8814 C   0  0  0  0  0  0
   -9.5633   -3.5990   38.3372 C   0  0  0  0  0  0
   -9.6674   -4.9465   37.6307 C   0  0  0  0  0  0
   -8.1114   -3.1485   38.4560 C   0  0  0  0  0  0
   -5.2081  -10.7682   40.1315 C   0  0  0  0  0  0
   -6.5104   -8.8840   40.7642 C   0  0  0  0  0  0
   -8.7948   -6.0008   38.2968 C   0  0  0  0  0  0
   -7.2443   -4.2092   39.1187 C   0  0  0  0  0  0
   -6.1547   -9.7265   39.5433 C   0  0  0  0  0  0
   -6.4947   -7.7843   37.9862 C   0  0  0  0  0  0
   -6.4393   -6.5588   38.8971 C   0  0  0  0  0  0
   -5.5314   -8.9181   38.4189 C   0  0  2  0  0  0
   -7.3686   -5.5071   38.3565 N   0  3  0  0  0  0
   -4.3574   -8.3020   38.9654 O   0  0  0  0  0  0
   -4.2181  -12.1884   34.3217 H   0  0  0  0  0  0
   -6.1406  -12.7468   35.7871 H   0  0  0  0  0  0
   -2.8984  -10.1286   34.7378 H   0  0  0  0  0  0
   -6.7461  -11.2536   37.6629 H   0  0  0  0  0  0
   -3.4959   -8.6291   36.6108 H   0  0  0  0  0  0
   -5.0629  -11.3409   42.2268 H   0  0  0  0  0  0
   -6.4689  -12.0036   41.3887 H   0  0  0  0  0  0
   -7.7300  -10.2072   41.9694 H   0  0  0  0  0  0
   -6.3727   -9.4983   42.8488 H   0  0  0  0  0  0
  -10.1420   -2.8469   37.7894 H   0  0  0  0  0  0
  -10.0047   -3.6766   39.3384 H   0  0  0  0  0  0
  -10.7105   -5.2812   37.6292 H   0  0  0  0  0  0
   -9.3685   -4.8314   36.5814 H   0  0  0  0  0  0
   -7.7173   -2.9233   37.4571 H   0  0  0  0  0  0
   -8.0609   -2.2192   39.0345 H   0  0  0  0  0  0
   -4.2079  -10.3446   40.2855 H   0  0  0  0  0  0
   -5.1043  -11.6476   39.4883 H   0  0  0  0  0  0
   -7.4169   -8.2904   40.6122 H   0  0  0  0  0  0
   -5.6947   -8.1944   41.0146 H   0  0  0  0  0  0
   -9.1184   -6.2098   39.3227 H   0  0  0  0  0  0
   -8.7983   -6.9281   37.7147 H   0  0  0  0  0  0
   -6.1902   -3.9143   39.0974 H   0  0  0  0  0  0
   -7.5516   -4.3996   40.1533 H   0  0  0  0  0  0
   -7.0609  -10.2295   39.1761 H   0  0  0  0  0  0
   -7.5262   -8.1539   37.9286 H   0  0  0  0  0  0
   -6.2249   -7.4609   36.9712 H   0  0  0  0  0  0
   -5.4429   -6.1092   38.9279 H   0  0  0  0  0  0
   -6.7776   -6.7771   39.9136 H   0  0  0  0  0  0
   -3.7941   -9.0257   39.2729 H   0  0  0  0  0  0
   -7.0848   -5.3211   37.4158 H   0  0  0  0  0  0
  1  2  2  0  0  0
  1  3  1  0  0  0
  1 22  1  0  0  0
  2  4  1  0  0  0
  2 23  1  0  0  0
  3  5  2  0  0  0
  3 24  1  0  0  0
  4  6  2  0  0  0
  4 25  1  0  0  0
  5  6  1  0  0  0
  5 26  1  0  0  0
  6 19  1  0  0  0
  7  8  1  0  0  0
  7 12  1  0  0  0
  7 27  1  0  0  0
  7 28  1  0  0  0
  8 13  1  0  0  0
  8 29  1  0  0  0
  8 30  1  0  0  0
  9 10  1  0  0  0
  9 11  1  0  0  0
  9 31  1  0  0  0
  9 32  1  0  0  0
 10 14  1  0  0  0
 10 33  1  0  0  0
 10 34  1  0  0  0
 11 15  1  0  0  0
 11 35  1  0  0  0
 11 36  1  0  0  0
 12 16  1  0  0  0
 12 37  1  0  0  0
 12 38  1  0  0  0
 13 16  1  0  0  0
 13 39  1  0  0  0
 13 40  1  0  0  0
 14 20  1  0  0  0
 14 41  1  0  0  0
 14 42  1  0  0  0
 15 20  1  0  0  0
 15 43  1  0  0  0
 15 44  1  0  0  0
 16 19  1  0  0  0
 16 45  1  0  0  0
 17 18  1  0  0  0
 17 19  1  0  0  0
 17 46  1  0  0  0
 17 47  1  0  0  0
 18 20  1  0  0  0
 18 48  1  0  0  0
 18 49  1  0  0  0
 19 21  1  0  0  0
 20 51  1  0  0  0
 21 50  1  0  0  0
M  CHG  1  20   1
M  END
> <EON_Query>
60c

> <EON_ET_pb>
0.035

> <EON_ET_coul>
-0.021

> <EON_ET_combo>
0.577

> <EON_ShapeTanimoto>
0.541

> <ROCS_ShapeQuery>
60c

> <ROCS_TanimotoCombo>
0.717

> <ROCS_ShapeTanimoto>
0.57

> <ROCS_ColorTanimoto>
0.146

> <ROCS_RefTversky>
0.624

> <ROCS_RefColorTversky>
0.22

> <ROCS_RefTverskyCombo>
0.844

> <ROCS_FitTversky>
0.869

> <ROCS_FitColorTversky>
0.303

> <ROCS_FitTverskyCombo>
1.173

> <ROCS_ColorScore>
-2.169

> <ROCS_Overlap>
806.771

> <ROCS_Rank>
1551

> <EON_Rank>
898

> <i_qp_#stars>
0

> <i_qp_#amine>
1

> <i_qp_#amidine>
0

> <i_qp_#acid>
0

> <i_qp_#amide>
0

> <i_qp_#rotor>
6

> <i_qp_#rtvFG>
0

> <i_qp_CNS>
1

> <r_qp_mol_MW>
287.444

> <r_qp_dipole>
2.05431

> <r_qp_SASA>
587.828

> <r_qp_FOSA>
397.508

> <r_qp_FISA>
18.7413

> <r_qp_PISA>
171.578

> <r_qp_WPSA>
0

> <r_qp_volume>
1038.15

> <r_qp_donorHB>
1

> <r_qp_accptHB>
2.75

> <r_qp_dip^2/V>
0.00406511

> <r_qp_ACxDN^.5/SA>
0.00467824

> <r_qp_glob>
0.843508

> <r_qp_QPpolrz>
33.1788

> <r_qp_QPlogPC16>
9.42237

> <r_qp_QPlogPoct>
13.0907

> <r_qp_QPlogPw>
5.27818

> <r_qp_QPlogPo/w>
4.18059

> <r_qp_QPlogS>
-3.78637

> <r_qp_CIQPlogS>
-3.25336

> <r_qp_QPlogHERG>
-5.60862

> <r_qp_QPPCaco>
1640.88

> <r_qp_QPlogBB>
0.424805

> <r_qp_QPPMDCK>
934.763

> <r_qp_QPlogKp>
-2.74703

> <r_qp_IP(eV)>
8.8901

> <r_qp_EA(eV)>
-0.205777

> <i_qp_#metab>
3

> <r_qp_QPlogKhsa>
0.659459

> <i_qp_HumanOralAbsorption>
3

> <r_qp_PercentHumanOralAbsorption>
100

> <r_qp_SAfluorine>
0

> <r_qp_SAamideO>
0

> <r_qp_PSA>
19.3784

> <i_qp_#NandO>
2

> <i_qp_RuleOfFive>
0

> <i_qp_RuleOfThree>
0

> <i_qp_#ringatoms>
17

> <i_qp_#in34>
0

> <i_qp_#in56>
17

> <i_qp_#noncon>
10

> <i_qp_#nonHatm>
21

> <r_qp_Jm>
0.0841698

> <stars>
0

> <logP>
4.18059

> <Caco>
1640.88

> <MDCK>
934.763

> <HumanOralAbsorption>
3

> <PercentHumanOralAbsorption>
100.0

> <RuleOfFive>
0

> <base>
fda.sdf

$$$$
Molecule_32
                    3D
 Schrodinger Suite 2022-3.
 40 42  0  0  1  0            999 V2000
   -9.0420   -4.0854   38.6261 C   0  0  0  0  0  0
   -6.0967  -10.0128   41.9322 C   0  0  0  0  0  0
   -7.7198   -3.7154   38.8720 C   0  0  0  0  0  0
   -9.3316   -5.3655   38.1537 C   0  0  0  0  0  0
   -6.8750   -8.8734   41.7288 C   0  0  0  0  0  0
   -5.3863  -10.5711   40.8693 C   0  0  0  0  0  0
   -6.6873   -4.6254   38.6455 C   0  0  0  0  0  0
   -8.2991   -6.2755   37.9271 C   0  0  0  0  0  0
   -6.9433   -8.2922   40.4626 C   0  0  0  0  0  0
   -5.4546   -9.9900   39.6031 C   0  0  0  0  0  0
   -6.9768   -5.9054   38.1730 C   0  0  0  0  0  0
   -6.2331   -8.8505   39.3997 C   0  0  0  0  0  0
   -5.7078   -9.8508   36.4766 C   0  0  0  0  0  0
   -4.5685  -11.7139   35.8632 C   0  0  0  0  0  0
   -3.7074  -10.4692   35.6044 C   0  0  0  0  0  0
   -5.8659   -6.8854   37.9287 C   0  0  0  0  0  0
   -6.7856   -9.0096   36.9853 C   0  0  0  0  0  0
   -5.8106  -11.1653   36.4168 N   0  0  0  0  0  0
   -4.5610   -9.3611   36.0446 N   0  3  0  0  0  0
   -6.3012   -8.2673   38.1284 N   0  0  0  0  0  0
   -9.8460   -3.3771   38.8039 H   0  0  0  0  0  0
   -6.0438  -10.4654   42.9181 H   0  0  0  0  0  0
   -7.4941   -2.7191   39.2410 H   0  0  0  0  0  0
  -10.3610   -5.6543   37.9632 H   0  0  0  0  0  0
   -7.4280   -8.4389   42.5562 H   0  0  0  0  0  0
   -4.7802  -11.4584   41.0278 H   0  0  0  0  0  0
   -5.6600   -4.3283   38.8397 H   0  0  0  0  0  0
   -8.5342   -7.2706   37.5588 H   0  0  0  0  0  0
   -7.5528   -7.4045   40.3146 H   0  0  0  0  0  0
   -4.8967  -10.4336   38.7824 H   0  0  0  0  0  0
   -4.7878  -12.2587   34.9409 H   0  0  0  0  0  0
   -4.1083  -12.3854   36.5931 H   0  0  0  0  0  0
   -2.7867  -10.4790   36.1939 H   0  0  0  0  0  0
   -3.4706  -10.3492   34.5438 H   0  0  0  0  0  0
   -5.4898   -6.7951   36.9039 H   0  0  0  0  0  0
   -5.0227   -6.6994   38.6022 H   0  0  0  0  0  0
   -7.6469   -9.6255   37.2918 H   0  0  0  0  0  0
   -7.1246   -8.3023   36.2107 H   0  0  0  0  0  0
   -6.6475  -11.6482   36.7230 H   0  0  0  0  0  0
   -4.3143   -8.3923   36.0213 H   0  0  0  0  0  0
  1  3  2  0  0  0
  1  4  1  0  0  0
  1 21  1  0  0  0
  2  5  2  0  0  0
  2  6  1  0  0  0
  2 22  1  0  0  0
  3  7  1  0  0  0
  3 23  1  0  0  0
  4  8  2  0  0  0
  4 24  1  0  0  0
  5  9  1  0  0  0
  5 25  1  0  0  0
  6 10  2  0  0  0
  6 26  1  0  0  0
  7 11  2  0  0  0
  7 27  1  0  0  0
  8 11  1  0  0  0
  8 28  1  0  0  0
  9 12  2  0  0  0
  9 29  1  0  0  0
 10 12  1  0  0  0
 10 30  1  0  0  0
 11 16  1  0  0  0
 12 20  1  0  0  0
 13 17  1  0  0  0
 13 18  1  0  0  0
 13 19  2  0  0  0
 14 15  1  0  0  0
 14 18  1  0  0  0
 14 31  1  0  0  0
 14 32  1  0  0  0
 15 19  1  0  0  0
 15 33  1  0  0  0
 15 34  1  0  0  0
 16 20  1  0  0  0
 16 35  1  0  0  0
 16 36  1  0  0  0
 17 20  1  0  0  0
 17 37  1  0  0  0
 17 38  1  0  0  0
 18 39  1  0  0  0
 19 40  1  0  0  0
M  CHG  1  19   1
M  END
> <EON_Query>
60c

> <EON_ET_pb>
0.085

> <EON_ET_coul>
0.073

> <EON_ET_combo>
0.572

> <EON_ShapeTanimoto>
0.487

> <ROCS_ShapeQuery>
60c

> <ROCS_TanimotoCombo>
0.766

> <ROCS_ShapeTanimoto>
0.563

> <ROCS_ColorTanimoto>
0.203

> <ROCS_RefTversky>
0.617

> <ROCS_RefColorTversky>
0.276

> <ROCS_RefTverskyCombo>
0.892

> <ROCS_FitTversky>
0.865

> <ROCS_FitColorTversky>
0.435

> <ROCS_FitTverskyCombo>
1.3

> <ROCS_ColorScore>
-2.701

> <ROCS_Overlap>
797.394

> <ROCS_Rank>
970

> <EON_Rank>
948

> <i_qp_#stars>
0

> <i_qp_#amine>
0

> <i_qp_#amidine>
1

> <i_qp_#acid>
0

> <i_qp_#amide>
0

> <i_qp_#rotor>
5

> <i_qp_#rtvFG>
0

> <i_qp_CNS>
0

> <r_qp_mol_MW>
265.357

> <r_qp_dipole>
4.08264

> <r_qp_SASA>
530.615

> <r_qp_FOSA>
176.489

> <r_qp_FISA>
31.6075

> <r_qp_PISA>
322.518

> <r_qp_WPSA>
0

> <r_qp_volume>
921.964

> <r_qp_donorHB>
1

> <r_qp_accptHB>
3

> <r_qp_dip^2/V>
0.0180787

> <r_qp_ACxDN^.5/SA>
0.00565382

> <r_qp_glob>
0.863366

> <r_qp_QPpolrz>
30.6126

> <r_qp_QPlogPC16>
9.52243

> <r_qp_QPlogPoct>
12.8947

> <r_qp_QPlogPw>
6.7215

> <r_qp_QPlogPo/w>
3.95881

> <r_qp_QPlogS>
-4.05111

> <r_qp_CIQPlogS>
-4.27741

> <r_qp_QPlogHERG>
-5.28096

> <r_qp_QPPCaco>
4967.83

> <r_qp_QPlogBB>
-0.0205227

> <r_qp_QPPMDCK>
2797.84

> <r_qp_QPlogKp>
-2.54844

> <r_qp_IP(eV)>
8.31892

> <r_qp_EA(eV)>
-0.345189

> <i_qp_#metab>
4

> <r_qp_QPlogKhsa>
0.340082

> <i_qp_HumanOralAbsorption>
3

> <r_qp_PercentHumanOralAbsorption>
100

> <r_qp_SAfluorine>
0

> <r_qp_SAamideO>
0

> <r_qp_PSA>
26.3036

> <i_qp_#NandO>
3

> <i_qp_RuleOfFive>
0

> <i_qp_RuleOfThree>
0

> <i_qp_#ringatoms>
17

> <i_qp_#in34>
0

> <i_qp_#in56>
17

> <i_qp_#noncon>
2

> <i_qp_#nonHatm>
20

> <r_qp_Jm>
0.0667238

> <stars>
0

> <logP>
3.95881

> <Caco>
4967.83

> <MDCK>
2797.84

> <HumanOralAbsorption>
3

> <PercentHumanOralAbsorption>
100.0

> <RuleOfFive>
0

> <base>
fda.sdf

$$$$
BindingDB_81473_mol_1_32
                    3D
 Schrodinger Suite 2022-3.
 40 42  0  0  1  0            999 V2000
   -9.0420   -4.0854   38.6261 C   0  0  0  0  0  0
   -6.0967  -10.0128   41.9322 C   0  0  0  0  0  0
   -7.7198   -3.7154   38.8720 C   0  0  0  0  0  0
   -9.3316   -5.3655   38.1537 C   0  0  0  0  0  0
   -6.8750   -8.8734   41.7288 C   0  0  0  0  0  0
   -5.3863  -10.5711   40.8693 C   0  0  0  0  0  0
   -6.6873   -4.6254   38.6455 C   0  0  0  0  0  0
   -8.2991   -6.2755   37.9271 C   0  0  0  0  0  0
   -6.9433   -8.2922   40.4626 C   0  0  0  0  0  0
   -5.4546   -9.9900   39.6031 C   0  0  0  0  0  0
   -6.9768   -5.9054   38.1730 C   0  0  0  0  0  0
   -6.2331   -8.8505   39.3997 C   0  0  0  0  0  0
   -5.7078   -9.8508   36.4766 C   0  0  0  0  0  0
   -4.5685  -11.7139   35.8632 C   0  0  0  0  0  0
   -3.7074  -10.4692   35.6044 C   0  0  0  0  0  0
   -5.8659   -6.8854   37.9287 C   0  0  0  0  0  0
   -6.7856   -9.0096   36.9853 C   0  0  0  0  0  0
   -5.8106  -11.1653   36.4168 N   0  0  0  0  0  0
   -4.5610   -9.3611   36.0446 N   0  3  0  0  0  0
   -6.3012   -8.2673   38.1284 N   0  0  0  0  0  0
   -9.8460   -3.3771   38.8039 H   0  0  0  0  0  0
   -6.0438  -10.4654   42.9181 H   0  0  0  0  0  0
   -7.4941   -2.7191   39.2410 H   0  0  0  0  0  0
  -10.3610   -5.6543   37.9632 H   0  0  0  0  0  0
   -7.4280   -8.4389   42.5562 H   0  0  0  0  0  0
   -4.7802  -11.4584   41.0278 H   0  0  0  0  0  0
   -5.6600   -4.3283   38.8397 H   0  0  0  0  0  0
   -8.5342   -7.2706   37.5588 H   0  0  0  0  0  0
   -7.5528   -7.4045   40.3146 H   0  0  0  0  0  0
   -4.8967  -10.4336   38.7824 H   0  0  0  0  0  0
   -4.7878  -12.2587   34.9409 H   0  0  0  0  0  0
   -4.1083  -12.3854   36.5931 H   0  0  0  0  0  0
   -2.7867  -10.4790   36.1939 H   0  0  0  0  0  0
   -3.4706  -10.3492   34.5438 H   0  0  0  0  0  0
   -5.4898   -6.7951   36.9039 H   0  0  0  0  0  0
   -5.0227   -6.6994   38.6022 H   0  0  0  0  0  0
   -7.6469   -9.6255   37.2918 H   0  0  0  0  0  0
   -7.1246   -8.3023   36.2107 H   0  0  0  0  0  0
   -6.6475  -11.6482   36.7230 H   0  0  0  0  0  0
   -4.3143   -8.3923   36.0213 H   0  0  0  0  0  0
  1  3  2  0  0  0
  1  4  1  0  0  0
  1 21  1  0  0  0
  2  5  2  0  0  0
  2  6  1  0  0  0
  2 22  1  0  0  0
  3  7  1  0  0  0
  3 23  1  0  0  0
  4  8  2  0  0  0
  4 24  1  0  0  0
  5  9  1  0  0  0
  5 25  1  0  0  0
  6 10  2  0  0  0
  6 26  1  0  0  0
  7 11  2  0  0  0
  7 27  1  0  0  0
  8 11  1  0  0  0
  8 28  1  0  0  0
  9 12  2  0  0  0
  9 29  1  0  0  0
 10 12  1  0  0  0
 10 30  1  0  0  0
 11 16  1  0  0  0
 12 20  1  0  0  0
 13 17  1  0  0  0
 13 18  1  0  0  0
 13 19  2  0  0  0
 14 15  1  0  0  0
 14 18  1  0  0  0
 14 31  1  0  0  0
 14 32  1  0  0  0
 15 19  1  0  0  0
 15 33  1  0  0  0
 15 34  1  0  0  0
 16 20  1  0  0  0
 16 35  1  0  0  0
 16 36  1  0  0  0
 17 20  1  0  0  0
 17 37  1  0  0  0
 17 38  1  0  0  0
 18 39  1  0  0  0
 19 40  1  0  0  0
M  CHG  1  19   1
M  END
> <EON_Query>
60c

> <EON_ET_pb>
0.085

> <EON_ET_coul>
0.073

> <EON_ET_combo>
0.572

> <EON_ShapeTanimoto>
0.487

> <ROCS_ShapeQuery>
60c

> <ROCS_TanimotoCombo>
0.766

> <ROCS_ShapeTanimoto>
0.563

> <ROCS_ColorTanimoto>
0.203

> <ROCS_RefTversky>
0.617

> <ROCS_RefColorTversky>
0.276

> <ROCS_RefTverskyCombo>
0.892

> <ROCS_FitTversky>
0.865

> <ROCS_FitColorTversky>
0.435

> <ROCS_FitTverskyCombo>
1.3

> <ROCS_ColorScore>
-2.701

> <ROCS_Overlap>
797.394

> <ROCS_Rank>
971

> <EON_Rank>
949

> <i_qp_#stars>
0

> <i_qp_#amine>
0

> <i_qp_#amidine>
1

> <i_qp_#acid>
0

> <i_qp_#amide>
0

> <i_qp_#rotor>
5

> <i_qp_#rtvFG>
0

> <i_qp_CNS>
0

> <r_qp_mol_MW>
265.357

> <r_qp_dipole>
4.08264

> <r_qp_SASA>
530.615

> <r_qp_FOSA>
176.489

> <r_qp_FISA>
31.6075

> <r_qp_PISA>
322.518

> <r_qp_WPSA>
0

> <r_qp_volume>
921.964

> <r_qp_donorHB>
1

> <r_qp_accptHB>
3

> <r_qp_dip^2/V>
0.0180787

> <r_qp_ACxDN^.5/SA>
0.00565382

> <r_qp_glob>
0.863366

> <r_qp_QPpolrz>
30.6126

> <r_qp_QPlogPC16>
9.52243

> <r_qp_QPlogPoct>
12.8947

> <r_qp_QPlogPw>
6.7215

> <r_qp_QPlogPo/w>
3.95881

> <r_qp_QPlogS>
-4.05111

> <r_qp_CIQPlogS>
-4.27741

> <r_qp_QPlogHERG>
-5.28096

> <r_qp_QPPCaco>
4967.83

> <r_qp_QPlogBB>
-0.0205227

> <r_qp_QPPMDCK>
2797.84

> <r_qp_QPlogKp>
-2.54844

> <r_qp_IP(eV)>
8.31892

> <r_qp_EA(eV)>
-0.345189

> <i_qp_#metab>
4

> <r_qp_QPlogKhsa>
0.340082

> <i_qp_HumanOralAbsorption>
3

> <r_qp_PercentHumanOralAbsorption>
100

> <r_qp_SAfluorine>
0

> <r_qp_SAamideO>
0

> <r_qp_PSA>
26.3036

> <i_qp_#NandO>
3

> <i_qp_RuleOfFive>
0

> <i_qp_RuleOfThree>
0

> <i_qp_#ringatoms>
17

> <i_qp_#in34>
0

> <i_qp_#in56>
17

> <i_qp_#noncon>
2

> <i_qp_#nonHatm>
20

> <r_qp_Jm>
0.0667238

> <stars>
0

> <logP>
3.95881

> <Caco>
4967.83

> <MDCK>
2797.84

> <HumanOralAbsorption>
3

> <PercentHumanOralAbsorption>
100.0

> <RuleOfFive>
0

> <base>
fda.sdf

$$$$
BindingDB_50262180_mol_1_2
                    3D
 Schrodinger Suite 2022-3.
 44 45  0  0  1  0            999 V2000
   -7.7344   -6.6992   38.1183 C   0  0  0  0  0  0
   -7.3565   -8.0266   37.9164 C   0  0  0  0  0  0
   -7.3373   -6.0293   39.2756 C   0  0  0  0  0  0
   -6.5817   -8.6841   38.8717 C   0  0  0  0  0  0
   -6.1846   -8.0143   40.0291 C   0  0  0  0  0  0
   -6.5624   -6.6869   40.2310 C   0  0  0  0  0  0
   -5.4461  -10.3517   37.4033 C   0  0  0  0  0  0
   -3.8343  -10.1796   35.8164 C   0  0  0  0  0  0
   -4.9204  -11.1597   35.3500 C   0  0  0  0  0  0
   -7.7950   -8.7211   36.6686 C   0  0  0  0  0  0
   -5.3532   -8.7137   41.0569 C   0  0  0  0  0  0
   -8.6075   -4.0983   38.2738 C   0  0  0  0  0  0
   -6.5109   -3.6716   39.5998 C   0  0  0  0  0  0
   -8.6139   -4.3336   40.7490 C   0  0  0  0  0  0
   -6.1703  -10.1294   38.6498 C   0  0  0  0  0  0
   -7.7514   -4.6084   39.4734 C   0  0  0  0  0  0
   -4.3034   -9.7474   37.1367 N   0  0  0  0  0  0
   -5.8795  -11.1658   36.4593 N   0  3  0  0  0  0
   -6.1765   -6.0308   41.3631 O   0  0  0  0  0  0
   -8.3388   -6.1863   37.3735 H   0  0  0  0  0  0
   -2.8597  -10.6653   35.9148 H   0  0  0  0  0  0
   -3.7542   -9.3126   35.1550 H   0  0  0  0  0  0
   -5.4168  -10.8167   34.4382 H   0  0  0  0  0  0
   -4.5249  -12.1685   35.2031 H   0  0  0  0  0  0
   -7.0514   -8.5817   35.8755 H   0  0  0  0  0  0
   -7.9270   -9.7965   36.8394 H   0  0  0  0  0  0
   -8.7587   -8.3327   36.3169 H   0  0  0  0  0  0
   -4.2885   -8.5742   40.8403 H   0  0  0  0  0  0
   -5.5608   -8.3274   42.0615 H   0  0  0  0  0  0
   -5.5702   -9.7882   41.0750 H   0  0  0  0  0  0
   -8.9250   -3.0559   38.3942 H   0  0  0  0  0  0
   -8.0529   -4.1567   37.3308 H   0  0  0  0  0  0
   -9.5099   -4.7113   38.1634 H   0  0  0  0  0  0
   -6.8090   -2.6276   39.7452 H   0  0  0  0  0  0
   -5.8629   -3.9398   40.4426 H   0  0  0  0  0  0
   -5.9061   -3.7170   38.6864 H   0  0  0  0  0  0
   -8.8925   -3.2778   40.8501 H   0  0  0  0  0  0
   -9.5455   -4.9109   40.7222 H   0  0  0  0  0  0
   -8.0664   -4.6103   41.6575 H   0  0  0  0  0  0
   -5.5666  -10.4496   39.5220 H   0  0  0  0  0  0
   -7.0769  -10.7639   38.6967 H   0  0  0  0  0  0
   -3.8784   -9.1001   37.7909 H   0  0  0  0  0  0
   -5.6470   -6.6177   41.9242 H   0  0  0  0  0  0
   -6.7242  -11.6999   36.4947 H   0  0  0  0  0  0
  1  2  2  0  0  0
  1  3  1  0  0  0
  1 20  1  0  0  0
  2  4  1  0  0  0
  2 10  1  0  0  0
  3  6  2  0  0  0
  3 16  1  0  0  0
  4  5  2  0  0  0
  4 15  1  0  0  0
  5  6  1  0  0  0
  5 11  1  0  0  0
  6 19  1  0  0  0
  7 15  1  0  0  0
  7 17  1  0  0  0
  7 18  2  0  0  0
  8  9  1  0  0  0
  8 17  1  0  0  0
  8 21  1  0  0  0
  8 22  1  0  0  0
  9 18  1  0  0  0
  9 23  1  0  0  0
  9 24  1  0  0  0
 10 25  1  0  0  0
 10 26  1  0  0  0
 10 27  1  0  0  0
 11 28  1  0  0  0
 11 29  1  0  0  0
 11 30  1  0  0  0
 12 16  1  0  0  0
 12 31  1  0  0  0
 12 32  1  0  0  0
 12 33  1  0  0  0
 13 16  1  0  0  0
 13 34  1  0  0  0
 13 35  1  0  0  0
 13 36  1  0  0  0
 14 16  1  0  0  0
 14 37  1  0  0  0
 14 38  1  0  0  0
 14 39  1  0  0  0
 15 40  1  0  0  0
 15 41  1  0  0  0
 17 42  1  0  0  0
 18 44  1  0  0  0
 19 43  1  0  0  0
M  CHG  1  18   1
M  END
> <EON_Query>
60c

> <EON_ET_pb>
0.066

> <EON_ET_coul>
0.074

> <EON_ET_combo>
0.569

> <EON_ShapeTanimoto>
0.504

> <ROCS_ShapeQuery>
60c

> <ROCS_TanimotoCombo>
0.657

> <ROCS_ShapeTanimoto>
0.537

> <ROCS_ColorTanimoto>
0.121

> <ROCS_RefTversky>
0.582

> <ROCS_RefColorTversky>
0.196

> <ROCS_RefTverskyCombo>
0.779

> <ROCS_FitTversky>
0.872

> <ROCS_FitColorTversky>
0.239

> <ROCS_FitTverskyCombo>
1.112

> <ROCS_ColorScore>
-1.943

> <ROCS_Overlap>
750.95

> <ROCS_Rank>
2306

> <EON_Rank>
963

> <i_qp_#stars>
0

> <i_qp_#amine>
0

> <i_qp_#amidine>
1

> <i_qp_#acid>
0

> <i_qp_#amide>
0

> <i_qp_#rotor>
4

> <i_qp_#rtvFG>
0

> <i_qp_CNS>
0

> <r_qp_mol_MW>
260.378

> <r_qp_dipole>
4.3725

> <r_qp_SASA>
527.022

> <r_qp_FOSA>
447.274

> <r_qp_FISA>
51.2387

> <r_qp_PISA>
28.5095

> <r_qp_WPSA>
0

> <r_qp_volume>
929.558

> <r_qp_donorHB>
2

> <r_qp_accptHB>
2.75

> <r_qp_dip^2/V>
0.0205676

> <r_qp_ACxDN^.5/SA>
0.00737936

> <r_qp_glob>
0.874018

> <r_qp_QPpolrz>
28.7508

> <r_qp_QPlogPC16>
7.93776

> <r_qp_QPlogPoct>
13.2845

> <r_qp_QPlogPw>
6.28555

> <r_qp_QPlogPo/w>
3.52973

> <r_qp_QPlogS>
-4.04761

> <r_qp_CIQPlogS>
-3.81098

> <r_qp_QPlogHERG>
-3.70648

> <r_qp_QPPCaco>
3235.96

> <r_qp_QPlogBB>
-0.124742

> <r_qp_QPPMDCK>
1760.37

> <r_qp_QPlogKp>
-4.04196

> <r_qp_IP(eV)>
8.50794

> <r_qp_EA(eV)>
-0.138381

> <i_qp_#metab>
4

> <r_qp_QPlogKhsa>
0.361432

> <i_qp_HumanOralAbsorption>
3

> <r_qp_PercentHumanOralAbsorption>
100

> <r_qp_SAfluorine>
0

> <r_qp_SAamideO>
0

> <r_qp_PSA>
39.9227

> <i_qp_#NandO>
3

> <i_qp_RuleOfFive>
0

> <i_qp_RuleOfThree>
0

> <i_qp_#ringatoms>
11

> <i_qp_#in34>
0

> <i_qp_#in56>
11

> <i_qp_#noncon>
2

> <i_qp_#nonHatm>
19

> <r_qp_Jm>
0.00211852

> <stars>
0

> <logP>
3.52973

> <Caco>
3235.96

> <MDCK>
1760.37

> <HumanOralAbsorption>
3

> <PercentHumanOralAbsorption>
100.0

> <RuleOfFive>
0

> <base>
fda.sdf

$$$$
BindingDB_50027075_mol_1_2
                    3D
 Schrodinger Suite 2022-3.
 44 45  0  0  1  0            999 V2000
   -7.7344   -6.6992   38.1183 C   0  0  0  0  0  0
   -7.3565   -8.0266   37.9164 C   0  0  0  0  0  0
   -7.3373   -6.0293   39.2756 C   0  0  0  0  0  0
   -6.5817   -8.6841   38.8717 C   0  0  0  0  0  0
   -6.1846   -8.0143   40.0291 C   0  0  0  0  0  0
   -6.5624   -6.6869   40.2310 C   0  0  0  0  0  0
   -5.4461  -10.3517   37.4033 C   0  0  0  0  0  0
   -3.8343  -10.1796   35.8164 C   0  0  0  0  0  0
   -4.9204  -11.1597   35.3500 C   0  0  0  0  0  0
   -7.7950   -8.7211   36.6686 C   0  0  0  0  0  0
   -5.3532   -8.7137   41.0569 C   0  0  0  0  0  0
   -8.6075   -4.0983   38.2738 C   0  0  0  0  0  0
   -6.5109   -3.6716   39.5998 C   0  0  0  0  0  0
   -8.6139   -4.3336   40.7490 C   0  0  0  0  0  0
   -6.1703  -10.1294   38.6498 C   0  0  0  0  0  0
   -7.7514   -4.6084   39.4734 C   0  0  0  0  0  0
   -4.3034   -9.7474   37.1367 N   0  0  0  0  0  0
   -5.8795  -11.1658   36.4593 N   0  3  0  0  0  0
   -6.1765   -6.0308   41.3631 O   0  0  0  0  0  0
   -8.3388   -6.1863   37.3735 H   0  0  0  0  0  0
   -2.8597  -10.6653   35.9148 H   0  0  0  0  0  0
   -3.7542   -9.3126   35.1550 H   0  0  0  0  0  0
   -5.4168  -10.8167   34.4382 H   0  0  0  0  0  0
   -4.5249  -12.1685   35.2031 H   0  0  0  0  0  0
   -7.0514   -8.5817   35.8755 H   0  0  0  0  0  0
   -7.9270   -9.7965   36.8394 H   0  0  0  0  0  0
   -8.7587   -8.3327   36.3169 H   0  0  0  0  0  0
   -4.2885   -8.5742   40.8403 H   0  0  0  0  0  0
   -5.5608   -8.3274   42.0615 H   0  0  0  0  0  0
   -5.5702   -9.7882   41.0750 H   0  0  0  0  0  0
   -8.9250   -3.0559   38.3942 H   0  0  0  0  0  0
   -8.0529   -4.1567   37.3308 H   0  0  0  0  0  0
   -9.5099   -4.7113   38.1634 H   0  0  0  0  0  0
   -6.8090   -2.6276   39.7452 H   0  0  0  0  0  0
   -5.8629   -3.9398   40.4426 H   0  0  0  0  0  0
   -5.9061   -3.7170   38.6864 H   0  0  0  0  0  0
   -8.8925   -3.2778   40.8501 H   0  0  0  0  0  0
   -9.5455   -4.9109   40.7222 H   0  0  0  0  0  0
   -8.0664   -4.6103   41.6575 H   0  0  0  0  0  0
   -5.5666  -10.4496   39.5220 H   0  0  0  0  0  0
   -7.0769  -10.7639   38.6967 H   0  0  0  0  0  0
   -3.8784   -9.1001   37.7909 H   0  0  0  0  0  0
   -5.6470   -6.6177   41.9242 H   0  0  0  0  0  0
   -6.7242  -11.6999   36.4947 H   0  0  0  0  0  0
  1  2  2  0  0  0
  1  3  1  0  0  0
  1 20  1  0  0  0
  2  4  1  0  0  0
  2 10  1  0  0  0
  3  6  2  0  0  0
  3 16  1  0  0  0
  4  5  2  0  0  0
  4 15  1  0  0  0
  5  6  1  0  0  0
  5 11  1  0  0  0
  6 19  1  0  0  0
  7 15  1  0  0  0
  7 17  1  0  0  0
  7 18  2  0  0  0
  8  9  1  0  0  0
  8 17  1  0  0  0
  8 21  1  0  0  0
  8 22  1  0  0  0
  9 18  1  0  0  0
  9 23  1  0  0  0
  9 24  1  0  0  0
 10 25  1  0  0  0
 10 26  1  0  0  0
 10 27  1  0  0  0
 11 28  1  0  0  0
 11 29  1  0  0  0
 11 30  1  0  0  0
 12 16  1  0  0  0
 12 31  1  0  0  0
 12 32  1  0  0  0
 12 33  1  0  0  0
 13 16  1  0  0  0
 13 34  1  0  0  0
 13 35  1  0  0  0
 13 36  1  0  0  0
 14 16  1  0  0  0
 14 37  1  0  0  0
 14 38  1  0  0  0
 14 39  1  0  0  0
 15 40  1  0  0  0
 15 41  1  0  0  0
 17 42  1  0  0  0
 18 44  1  0  0  0
 19 43  1  0  0  0
M  CHG  1  18   1
M  END
> <EON_Query>
60c

> <EON_ET_pb>
0.066

> <EON_ET_coul>
0.074

> <EON_ET_combo>
0.569

> <EON_ShapeTanimoto>
0.504

> <ROCS_ShapeQuery>
60c

> <ROCS_TanimotoCombo>
0.657

> <ROCS_ShapeTanimoto>
0.537

> <ROCS_ColorTanimoto>
0.121

> <ROCS_RefTversky>
0.582

> <ROCS_RefColorTversky>
0.196

> <ROCS_RefTverskyCombo>
0.779

> <ROCS_FitTversky>
0.872

> <ROCS_FitColorTversky>
0.239

> <ROCS_FitTverskyCombo>
1.112

> <ROCS_ColorScore>
-1.943

> <ROCS_Overlap>
750.95

> <ROCS_Rank>
2305

> <EON_Rank>
964

> <i_qp_#stars>
0

> <i_qp_#amine>
0

> <i_qp_#amidine>
1

> <i_qp_#acid>
0

> <i_qp_#amide>
0

> <i_qp_#rotor>
4

> <i_qp_#rtvFG>
0

> <i_qp_CNS>
0

> <r_qp_mol_MW>
260.378

> <r_qp_dipole>
4.3725

> <r_qp_SASA>
527.022

> <r_qp_FOSA>
447.274

> <r_qp_FISA>
51.2387

> <r_qp_PISA>
28.5095

> <r_qp_WPSA>
0

> <r_qp_volume>
929.558

> <r_qp_donorHB>
2

> <r_qp_accptHB>
2.75

> <r_qp_dip^2/V>
0.0205676

> <r_qp_ACxDN^.5/SA>
0.00737936

> <r_qp_glob>
0.874018

> <r_qp_QPpolrz>
28.7508

> <r_qp_QPlogPC16>
7.93776

> <r_qp_QPlogPoct>
13.2845

> <r_qp_QPlogPw>
6.28555

> <r_qp_QPlogPo/w>
3.52973

> <r_qp_QPlogS>
-4.04761

> <r_qp_CIQPlogS>
-3.81098

> <r_qp_QPlogHERG>
-3.70648

> <r_qp_QPPCaco>
3235.96

> <r_qp_QPlogBB>
-0.124742

> <r_qp_QPPMDCK>
1760.37

> <r_qp_QPlogKp>
-4.04196

> <r_qp_IP(eV)>
8.50794

> <r_qp_EA(eV)>
-0.138381

> <i_qp_#metab>
4

> <r_qp_QPlogKhsa>
0.361432

> <i_qp_HumanOralAbsorption>
3

> <r_qp_PercentHumanOralAbsorption>
100

> <r_qp_SAfluorine>
0

> <r_qp_SAamideO>
0

> <r_qp_PSA>
39.9227

> <i_qp_#NandO>
3

> <i_qp_RuleOfFive>
0

> <i_qp_RuleOfThree>
0

> <i_qp_#ringatoms>
11

> <i_qp_#in34>
0

> <i_qp_#in56>
11

> <i_qp_#noncon>
2

> <i_qp_#nonHatm>
19

> <r_qp_Jm>
0.00211852

> <stars>
0

> <logP>
3.52973

> <Caco>
3235.96

> <MDCK>
1760.37

> <HumanOralAbsorption>
3

> <PercentHumanOralAbsorption>
100.0

> <RuleOfFive>
0

> <base>
fda.sdf

$$$$
Molecule_17
                    3D
 Schrodinger Suite 2022-3.
 59 62  0  0  1  0            999 V2000
   -9.0345   -4.2920   37.7237 C   0  0  0  0  0  0
   -2.0913   -5.5268   38.5304 C   0  0  0  0  0  0
   -8.0975   -3.7318   38.5919 C   0  0  0  0  0  0
   -9.0198   -5.6640   37.4726 C   0  0  0  0  0  0
   -2.9896   -5.9436   37.5481 C   0  0  0  0  0  0
   -2.4748   -5.5268   39.8716 C   0  0  0  0  0  0
   -7.1457   -4.5434   39.2090 C   0  0  0  0  0  0
   -8.0679   -6.4757   38.0897 C   0  0  0  0  0  0
   -4.2714   -6.3604   37.9069 C   0  0  0  0  0  0
   -3.7567   -5.9436   40.2304 C   0  0  0  0  0  0
   -7.1309   -5.9155   38.9579 C   0  0  0  0  0  0
   -4.6551   -6.3604   39.2480 C   0  0  0  0  0  0
   -6.3884   -6.7615   41.1634 C   0  0  0  0  0  0
   -7.3195   -8.7907   40.3726 C   0  0  0  0  0  0
   -5.7784  -11.5797   36.8393 C   0  0  0  0  0  0
   -3.8309  -10.0361   36.9148 C   0  0  0  0  0  0
   -5.8816  -11.2736   35.3547 C   0  0  0  0  0  0
   -4.0342   -9.8102   35.4263 C   0  0  0  0  0  0
   -6.2271   -8.3730   39.3893 C   0  0  1  0  0  0
   -6.0707   -6.8202   39.6449 C   0  0  0  0  0  0
   -6.7297   -8.8938   43.6836 C   0  0  0  0  0  0
   -4.9657   -9.2144   39.6724 C   0  0  0  0  0  0
   -7.6903   -8.1879   42.7883 C   0  0  0  0  0  0
   -5.0721  -10.5754   39.0157 C   0  0  0  0  0  0
   -7.0971   -7.9165   41.4963 N   0  0  0  0  0  0
   -5.1666  -10.3833   37.5292 N   0  3  0  0  0  0
   -6.1301   -5.8312   41.9163 O   0  0  0  0  0  0
   -4.5938  -10.9734   34.8146 O   0  0  0  0  0  0
   -9.7763   -3.6600   37.2443 H   0  0  0  0  0  0
   -1.0927   -5.2035   38.2511 H   0  0  0  0  0  0
   -8.1096   -2.6636   38.7883 H   0  0  0  0  0  0
   -9.7497   -6.1007   36.7976 H   0  0  0  0  0  0
   -2.6906   -5.9447   36.5040 H   0  0  0  0  0  0
   -1.7753   -5.2033   40.6368 H   0  0  0  0  0  0
   -6.4195   -4.0981   39.8839 H   0  0  0  0  0  0
   -8.0638   -7.5436   37.8881 H   0  0  0  0  0  0
   -4.9647   -6.6833   37.1346 H   0  0  0  0  0  0
   -4.0469   -5.9401   41.2777 H   0  0  0  0  0  0
   -8.3218   -8.5924   39.9782 H   0  0  0  0  0  0
   -7.2482   -9.8385   40.6799 H   0  0  0  0  0  0
   -6.7633  -11.7499   37.2798 H   0  0  0  0  0  0
   -5.1190  -12.4310   37.0294 H   0  0  0  0  0  0
   -3.1623  -10.8800   37.1060 H   0  0  0  0  0  0
   -3.4629   -9.1337   37.4077 H   0  0  0  0  0  0
   -6.2687  -12.1483   34.8228 H   0  0  0  0  0  0
   -6.5656  -10.4390   35.1593 H   0  0  0  0  0  0
   -4.6810   -8.9463   35.2318 H   0  0  0  0  0  0
   -3.0698   -9.6150   34.9466 H   0  0  0  0  0  0
   -6.5424   -8.5908   38.3666 H   0  0  0  0  0  0
   -6.4256   -9.8533   43.2515 H   0  0  0  0  0  0
   -5.8401   -8.2802   43.8627 H   0  0  0  0  0  0
   -7.2034   -9.0944   44.6520 H   0  0  0  0  0  0
   -4.8542   -9.3140   40.7538 H   0  0  0  0  0  0
   -4.0974   -8.6699   39.2968 H   0  0  0  0  0  0
   -7.9898   -7.2308   43.2258 H   0  0  0  0  0  0
   -8.5850   -8.7954   42.6232 H   0  0  0  0  0  0
   -4.1896  -11.1949   39.2002 H   0  0  0  0  0  0
   -5.9722  -11.1154   39.3237 H   0  0  0  0  0  0
   -5.7759   -9.6068   37.3686 H   0  0  0  0  0  0
  1  3  2  0  0  0
  1  4  1  0  0  0
  1 29  1  0  0  0
  2  5  2  0  0  0
  2  6  1  0  0  0
  2 30  1  0  0  0
  3  7  1  0  0  0
  3 31  1  0  0  0
  4  8  2  0  0  0
  4 32  1  0  0  0
  5  9  1  0  0  0
  5 33  1  0  0  0
  6 10  2  0  0  0
  6 34  1  0  0  0
  7 11  2  0  0  0
  7 35  1  0  0  0
  8 11  1  0  0  0
  8 36  1  0  0  0
  9 12  2  0  0  0
  9 37  1  0  0  0
 10 12  1  0  0  0
 10 38  1  0  0  0
 11 20  1  0  0  0
 12 20  1  0  0  0
 13 20  1  0  0  0
 13 25  1  0  0  0
 13 27  2  0  0  0
 14 19  1  0  0  0
 14 25  1  0  0  0
 14 39  1  0  0  0
 14 40  1  0  0  0
 15 17  1  0  0  0
 15 26  1  0  0  0
 15 41  1  0  0  0
 15 42  1  0  0  0
 16 18  1  0  0  0
 16 26  1  0  0  0
 16 43  1  0  0  0
 16 44  1  0  0  0
 17 28  1  0  0  0
 17 45  1  0  0  0
 17 46  1  0  0  0
 18 28  1  0  0  0
 18 47  1  0  0  0
 18 48  1  0  0  0
 19 20  1  0  0  0
 19 22  1  0  0  0
 19 49  1  0  0  0
 21 23  1  0  0  0
 21 50  1  0  0  0
 21 51  1  0  0  0
 21 52  1  0  0  0
 22 24  1  0  0  0
 22 53  1  0  0  0
 22 54  1  0  0  0
 23 25  1  0  0  0
 23 55  1  0  0  0
 23 56  1  0  0  0
 24 26  1  0  0  0
 24 57  1  0  0  0
 24 58  1  0  0  0
 26 59  1  0  0  0
M  CHG  1  26   1
M  END
> <EON_Query>
60c

> <EON_ET_pb>
0.127

> <EON_ET_coul>
0.096

> <EON_ET_combo>
0.567

> <EON_ShapeTanimoto>
0.44

> <ROCS_ShapeQuery>
60c

> <ROCS_TanimotoCombo>
0.745

> <ROCS_ShapeTanimoto>
0.561

> <ROCS_ColorTanimoto>
0.184

> <ROCS_RefTversky>
0.703

> <ROCS_RefColorTversky>
0.283

> <ROCS_RefTverskyCombo>
0.986

> <ROCS_FitTversky>
0.735

> <ROCS_FitColorTversky>
0.346

> <ROCS_FitTverskyCombo>
1.08

> <ROCS_ColorScore>
-2.8

> <ROCS_Overlap>
921.577

> <ROCS_Rank>
1203

> <EON_Rank>
997

> <i_qp_#stars>
0

> <i_qp_#amine>
1

> <i_qp_#amidine>
0

> <i_qp_#acid>
0

> <i_qp_#amide>
1

> <i_qp_#rotor>
4

> <i_qp_#rtvFG>
0

> <i_qp_CNS>
2

> <r_qp_mol_MW>
378.513

> <r_qp_dipole>
3.40355

> <r_qp_SASA>
630.848

> <r_qp_FOSA>
328.934

> <r_qp_FISA>
15.9896

> <r_qp_PISA>
285.924

> <r_qp_WPSA>
0

> <r_qp_volume>
1217.15

> <r_qp_donorHB>
0

> <r_qp_accptHB>
6.7

> <r_qp_dip^2/V>
0.00951744

> <r_qp_ACxDN^.5/SA>
0

> <r_qp_glob>
0.873915

> <r_qp_QPpolrz>
42.7184

> <r_qp_QPlogPC16>
11.6851

> <r_qp_QPlogPoct>
17.5951

> <r_qp_QPlogPw>
10.1913

> <r_qp_QPlogPo/w>
3.04442

> <r_qp_QPlogS>
-2.26372

> <r_qp_CIQPlogS>
-3.23972

> <r_qp_QPlogHERG>
-4.28752

> <r_qp_QPPCaco>
1299.85

> <r_qp_QPlogBB>
0.581362

> <r_qp_QPPMDCK>
997.485

> <r_qp_QPlogKp>
-2.48552

> <r_qp_IP(eV)>
9.23489

> <r_qp_EA(eV)>
-0.233171

> <i_qp_#metab>
4

> <r_qp_QPlogKhsa>
-0.132412

> <i_qp_HumanOralAbsorption>
3

> <r_qp_PercentHumanOralAbsorption>
100

> <r_qp_SAfluorine>
0

> <r_qp_SAamideO>
15.9896

> <r_qp_PSA>
33.7964

> <i_qp_#NandO>
4

> <i_qp_RuleOfFive>
0

> <i_qp_RuleOfThree>
0

> <i_qp_#ringatoms>
23

> <i_qp_#in34>
0

> <i_qp_#in56>
23

> <i_qp_#noncon>
7

> <i_qp_#nonHatm>
28

> <r_qp_Jm>
6.74269

> <stars>
0

> <logP>
3.04442

> <Caco>
1299.85

> <MDCK>
997.485

> <HumanOralAbsorption>
3

> <PercentHumanOralAbsorption>
100.0

> <RuleOfFive>
0

> <base>
fda.sdf

$$$$
