@<TRIPOS>MOLECULE
60c
49   51    1
SMALL
USER_CHARGES


@<TRIPOS>ATOM
      1 C1        -21.9004  -23.1435   37.3498 C.2       1 UNK         0.7000 
      2 C2        -21.9691  -21.6544   37.4758 C.ar      1 UNK        -0.1150 
      3 C3        -20.9756  -20.9071   38.1466 C.ar      1 UNK        -0.1150 
      4 C4        -21.0584  -19.5064   38.2437 C.ar      1 UNK         0.0850 
      5 C5        -20.3918  -17.7978   39.7749 C.3       1 UNK         0.1100 
      6 C6        -22.1339  -18.8195   37.6156 C.ar      1 UNK         0.0850 
      7 C7        -21.3480  -16.9171   36.5407 C.3       1 UNK         0.1100 
      8 C8        -23.1568  -19.5618   36.9606 C.ar      1 UNK         0.0850 
      9 C9        -24.7911  -17.7979   36.8310 C.3       1 UNK         0.1100 
     10 C10       -23.0498  -20.9632   36.8877 C.ar      1 UNK        -0.1150 
     11 C11       -20.9704  -23.8792   38.2538 C.ar      1 UNK         0.3700 
     12 C12       -19.1325  -25.3132   38.4400 C.ar      1 UNK         0.5296 
     13 C13       -18.1060  -26.0953   37.7159 C.ar      1 UNK        -0.0446 
     14 C14       -17.5390  -27.2574   38.2875 C.ar      1 UNK        -0.1150 
     15 C15       -16.5566  -28.0003   37.6078 C.ar      1 UNK         0.1500 
     16 C16       -16.1169  -27.5953   36.3304 C.ar      1 UNK        -0.1150 
     17 C17       -15.0612  -28.3879   35.5827 C.3       1 UNK        -0.0650 
     18 C18       -16.6732  -26.4408   35.7461 C.ar      1 UNK        -0.1150 
     19 C19       -17.6552  -25.7018   36.4335 C.ar      1 UNK        -0.1150 
     20 C20       -19.2113  -25.2819   39.8465 C.ar      1 UNK        -0.4470 
     21 C21       -20.2208  -24.5227   40.4613 C.ar      1 UNK         0.2270 
     22 C22       -21.1218  -23.8084   39.6568 C.ar      1 UNK        -0.0720 
     23 F23       -22.1070  -23.0764   40.2311 F         1 UNK        -0.2200 
     24 N24       -19.9957  -24.6178   37.6717 N.ar      1 UNK        -0.6780 
     25 O25       -22.5714  -23.7418   36.5043 O.2       1 UNK        -0.4700 
     26 O26       -20.0389  -18.8869   38.9319 O.3       1 UNK        -0.2850 
     27 O27       -22.1456  -17.4491   37.5875 O.3       1 UNK        -0.2850 
     28 O28       -24.2594  -19.0182   36.3353 O.3       1 UNK        -0.2850 
     29 O29       -16.0398  -29.1140   38.1996 O.3       1 UNK        -0.5850 
     30 H30       -20.1271  -21.3944   38.6040 H         1 UNK         0.1150 
     31 H31       -19.6803  -17.7392   40.5984 H         1 UNK         0.0300 
     32 H32       -21.3866  -17.9132   40.2088 H         1 UNK         0.0300 
     33 H33       -20.3442  -16.8502   39.2392 H         1 UNK         0.0300 
     34 H34       -21.4132  -15.8293   36.5483 H         1 UNK         0.0300 
     35 H35       -21.6919  -17.2674   35.5663 H         1 UNK         0.0300 
     36 H36       -20.2987  -17.1917   36.6577 H         1 UNK         0.0300 
     37 H37       -24.2787  -16.9389   36.3980 H         1 UNK         0.0300 
     38 H38       -25.8400  -17.7250   36.5445 H         1 UNK         0.0300 
     39 H39       -24.7445  -17.7387   37.9194 H         1 UNK         0.0300 
     40 H40       -23.8211  -21.5137   36.3666 H         1 UNK         0.1150 
     41 H41       -17.8660  -27.6005   39.2571 H         1 UNK         0.1150 
     42 H42       -14.8326  -27.9325   34.6188 H         1 UNK         0.0600 
     43 H43       -14.1376  -28.4310   36.1603 H         1 UNK         0.0600 
     44 H44       -15.4094  -29.4045   35.3987 H         1 UNK         0.0600 
     45 H45       -16.3543  -26.1135   34.7672 H         1 UNK         0.1150 
     46 H46       -18.0712  -24.8197   35.9679 H         1 UNK         0.1150 
     47 H47       -18.5056  -25.8262   40.4552 H         1 UNK         0.1550 
     48 H48       -20.3036  -24.4867   41.5375 H         1 UNK         0.0650 
     49 H49       -15.4064  -29.5526   37.6546 H         1 UNK         0.4350 
@<TRIPOS>BOND
     1    1    2 1    
     2    1   11 1    
     3    1   25 2    
     4    2    3 ar   
     5    2   10 ar   
     6    3    4 ar   
     7    3   30 1    
     8    4    6 ar   
     9    4   26 1    
    10    5   26 1    
    11    5   31 1    
    12    5   32 1    
    13    5   33 1    
    14    6    8 ar   
    15    6   27 1    
    16    7   27 1    
    17    7   34 1    
    18    7   35 1    
    19    7   36 1    
    20    8   10 ar   
    21    8   28 1    
    22    9   28 1    
    23    9   37 1    
    24    9   38 1    
    25    9   39 1    
    26   10   40 1    
    27   11   22 ar   
    28   11   24 ar   
    29   12   13 1    
    30   12   20 ar   
    31   12   24 ar   
    32   13   14 ar   
    33   13   19 ar   
    34   14   15 ar   
    35   14   41 1    
    36   15   16 ar   
    37   15   29 1    
    38   16   17 1    
    39   16   18 ar   
    40   17   42 1    
    41   17   43 1    
    42   17   44 1    
    43   18   19 ar   
    44   18   45 1    
    45   19   46 1    
    46   20   21 ar   
    47   20   47 1    
    48   21   22 ar   
    49   21   48 1    
    50   22   23 1    
    51   29   49 1    
@<TRIPOS>SUBSTRUCTURE
     1 UNK         1 GROUP             0       ****    0 ROOT    
@<TRIPOS>MOLECULE
60c
49   51    1
SMALL
USER_CHARGES


@<TRIPOS>ATOM
      1 C1        -21.9004  -23.1435   37.3498 C.2       1 UNK         0.7000 
      2 C2        -21.9691  -21.6544   37.4758 C.ar      1 UNK        -0.1150 
      3 C3        -20.9756  -20.9071   38.1466 C.ar      1 UNK        -0.1150 
      4 C4        -21.0584  -19.5064   38.2437 C.ar      1 UNK         0.0850 
      5 C5        -20.3918  -17.7978   39.7749 C.3       1 UNK         0.1100 
      6 C6        -22.1339  -18.8195   37.6156 C.ar      1 UNK         0.0850 
      7 C7        -21.3480  -16.9171   36.5407 C.3       1 UNK         0.1100 
      8 C8        -23.1568  -19.5618   36.9606 C.ar      1 UNK         0.0850 
      9 C9        -24.7911  -17.7979   36.8310 C.3       1 UNK         0.1100 
     10 C10       -23.0498  -20.9632   36.8877 C.ar      1 UNK        -0.1150 
     11 C11       -20.9704  -23.8792   38.2538 C.ar      1 UNK         0.3700 
     12 C12       -19.1325  -25.3132   38.4400 C.ar      1 UNK         0.5296 
     13 C13       -18.1060  -26.0953   37.7159 C.ar      1 UNK        -0.0446 
     14 C14       -17.5390  -27.2574   38.2875 C.ar      1 UNK        -0.1150 
     15 C15       -16.5566  -28.0003   37.6078 C.ar      1 UNK         0.1500 
     16 C16       -16.1169  -27.5953   36.3304 C.ar      1 UNK        -0.1150 
     17 C17       -15.0612  -28.3879   35.5827 C.3       1 UNK        -0.0650 
     18 C18       -16.6732  -26.4408   35.7461 C.ar      1 UNK        -0.1150 
     19 C19       -17.6552  -25.7018   36.4335 C.ar      1 UNK        -0.1150 
     20 C20       -19.2113  -25.2819   39.8465 C.ar      1 UNK        -0.4470 
     21 C21       -20.2208  -24.5227   40.4613 C.ar      1 UNK         0.2270 
     22 C22       -21.1218  -23.8084   39.6568 C.ar      1 UNK        -0.0720 
     23 F23       -22.1070  -23.0764   40.2311 F         1 UNK        -0.2200 
     24 N24       -19.9957  -24.6178   37.6717 N.ar      1 UNK        -0.6780 
     25 O25       -22.5714  -23.7418   36.5043 O.2       1 UNK        -0.4700 
     26 O26       -20.0389  -18.8869   38.9319 O.3       1 UNK        -0.2850 
     27 O27       -22.1456  -17.4491   37.5875 O.3       1 UNK        -0.2850 
     28 O28       -24.2594  -19.0182   36.3353 O.3       1 UNK        -0.2850 
     29 O29       -16.0398  -29.1140   38.1996 O.3       1 UNK        -0.5850 
     30 H30       -20.1271  -21.3944   38.6040 H         1 UNK         0.1150 
     31 H31       -19.6803  -17.7392   40.5984 H         1 UNK         0.0300 
     32 H32       -21.3866  -17.9132   40.2088 H         1 UNK         0.0300 
     33 H33       -20.3442  -16.8502   39.2392 H         1 UNK         0.0300 
     34 H34       -21.4132  -15.8293   36.5483 H         1 UNK         0.0300 
     35 H35       -21.6919  -17.2674   35.5663 H         1 UNK         0.0300 
     36 H36       -20.2987  -17.1917   36.6577 H         1 UNK         0.0300 
     37 H37       -24.2787  -16.9389   36.3980 H         1 UNK         0.0300 
     38 H38       -25.8400  -17.7250   36.5445 H         1 UNK         0.0300 
     39 H39       -24.7445  -17.7387   37.9194 H         1 UNK         0.0300 
     40 H40       -23.8211  -21.5137   36.3666 H         1 UNK         0.1150 
     41 H41       -17.8660  -27.6005   39.2571 H         1 UNK         0.1150 
     42 H42       -14.8326  -27.9325   34.6188 H         1 UNK         0.0600 
     43 H43       -14.1376  -28.4310   36.1603 H         1 UNK         0.0600 
     44 H44       -15.4094  -29.4045   35.3987 H         1 UNK         0.0600 
     45 H45       -16.3543  -26.1135   34.7672 H         1 UNK         0.1150 
     46 H46       -18.0712  -24.8197   35.9679 H         1 UNK         0.1150 
     47 H47       -18.5056  -25.8262   40.4552 H         1 UNK         0.1550 
     48 H48       -20.3036  -24.4867   41.5375 H         1 UNK         0.0650 
     49 H49       -15.4064  -29.5526   37.6546 H         1 UNK         0.4350 
@<TRIPOS>BOND
     1    1    2 1    
     2    1   11 1    
     3    1   25 2    
     4    2    3 ar   
     5    2   10 ar   
     6    3    4 ar   
     7    3   30 1    
     8    4    6 ar   
     9    4   26 1    
    10    5   26 1    
    11    5   31 1    
    12    5   32 1    
    13    5   33 1    
    14    6    8 ar   
    15    6   27 1    
    16    7   27 1    
    17    7   34 1    
    18    7   35 1    
    19    7   36 1    
    20    8   10 ar   
    21    8   28 1    
    22    9   28 1    
    23    9   37 1    
    24    9   38 1    
    25    9   39 1    
    26   10   40 1    
    27   11   22 ar   
    28   11   24 ar   
    29   12   13 1    
    30   12   20 ar   
    31   12   24 ar   
    32   13   14 ar   
    33   13   19 ar   
    34   14   15 ar   
    35   14   41 1    
    36   15   16 ar   
    37   15   29 1    
    38   16   17 1    
    39   16   18 ar   
    40   17   42 1    
    41   17   43 1    
    42   17   44 1    
    43   18   19 ar   
    44   18   45 1    
    45   19   46 1    
    46   20   21 ar   
    47   20   47 1    
    48   21   22 ar   
    49   21   48 1    
    50   22   23 1    
    51   29   49 1    
@<TRIPOS>SUBSTRUCTURE
     1 UNK         1 GROUP             0       ****    0 ROOT    
@<TRIPOS>MOLECULE
ZINC00036001_99
44   45    1
SMALL
USER_CHARGES


@<TRIPOS>ATOM
      1 C1        -13.9105  -21.0374   37.2687 C.ar      1 UNK        -0.1150 
      2 C2        -12.0672  -20.0217   38.5042 C.ar      1 UNK        -0.1150 
      3 C3        -13.1297  -22.1907   37.0556 C.ar      1 UNK        -0.1150 
      4 C4        -11.2888  -21.1762   38.2907 C.ar      1 UNK        -0.1150 
      5 C5        -16.8529  -14.5120   37.9594 C.ar      1 UNK        -0.1150 
      6 C6        -15.0245  -13.0600   38.6254 C.ar      1 UNK        -0.1150 
      7 C7        -15.4907  -14.3406   38.2799 C.ar      1 UNK        -0.1150 
      8 C8        -13.3806  -19.9490   37.9941 C.ar      1 UNK        -0.1150 
      9 C9        -17.7391  -13.4068   37.9352 C.ar      1 UNK         0.0850 
     10 C10       -15.8804  -11.9442   38.6260 C.ar      1 UNK         0.0850 
     11 C11       -17.2419  -12.1071   38.2368 C.ar      1 UNK         0.0850 
     12 C12       -11.8196  -22.2607   37.5666 C.ar      1 UNK         0.1800 
     13 C13       -14.5484  -15.5060   38.3107 C.2       1 UNK         0.6150 
     14 C14       -19.6178  -14.8379   37.4260 C.3       1 UNK         0.1100 
     15 C15       -16.0730   -9.7311   39.5701 C.3       1 UNK         0.1100 
     16 C16       -18.8232  -10.8279   36.9888 C.3       1 UNK         0.1100 
     17 C17       -14.2133  -18.7023   38.2213 C.3       1 UNK        -0.0050 
     18 C18       -13.9132  -17.6140   37.1761 C.3       1 UNK         0.0800 
     19 N19       -14.7462  -16.4312   37.3639 N.am      1 UNK        -0.5000 
     20 O20       -13.6277  -15.5635   39.1215 O.2       1 UNK        -0.5000 
     21 O21       -19.0834  -13.5412   37.6471 O.3       1 UNK        -0.2850 
     22 O22       -15.2816  -10.7527   38.9818 O.3       1 UNK        -0.2850 
     23 O23       -18.0613  -11.0010   38.1762 O.3       1 UNK        -0.2850 
     24 Cl24      -10.8663  -23.6737   37.3045 Cl        1 UNK        -0.1800 
     25 H25       -14.9150  -20.9948   36.8733 H         1 UNK         0.1150 
     26 H26       -11.6520  -19.1926   39.0602 H         1 UNK         0.1150 
     27 H27       -13.5339  -23.0247   36.5008 H         1 UNK         0.1150 
     28 H28       -10.2836  -21.2314   38.6821 H         1 UNK         0.1150 
     29 H29       -17.2064  -15.5082   37.7473 H         1 UNK         0.1150 
     30 H30       -13.9882  -12.9274   38.9039 H         1 UNK         0.1150 
     31 H31       -20.6897  -14.7569   37.2466 H         1 UNK         0.0300 
     32 H32       -19.4784  -15.4812   38.2959 H         1 UNK         0.0300 
     33 H33       -19.1733  -15.3091   36.5484 H         1 UNK         0.0300 
     34 H34       -16.8073  -10.1322   40.2705 H         1 UNK         0.0300 
     35 H35       -16.5796   -9.1368   38.8094 H         1 UNK         0.0300 
     36 H36       -15.4248   -9.0561   40.1283 H         1 UNK         0.0300 
     37 H37       -19.8308  -11.2253   37.1100 H         1 UNK         0.0300 
     38 H38       -18.3580  -11.2961   36.1196 H         1 UNK         0.0300 
     39 H39       -18.9173   -9.7630   36.7774 H         1 UNK         0.0300 
     40 H40       -14.0119  -18.3285   39.2268 H         1 UNK         0.0600 
     41 H41       -15.2709  -18.9675   38.2007 H         1 UNK         0.0600 
     42 H42       -12.8592  -17.3315   37.2177 H         1 UNK         0.0600 
     43 H43       -14.0897  -18.0036   36.1731 H         1 UNK         0.0600 
     44 H44       -15.4834  -16.2591   36.6995 H         1 UNK         0.3000 
@<TRIPOS>BOND
     1    1    3 ar   
     2    1    8 ar   
     3    1   25 1    
     4    2    4 ar   
     5    2    8 ar   
     6    2   26 1    
     7    3   12 ar   
     8    3   27 1    
     9    4   12 ar   
    10    4   28 1    
    11    5    7 ar   
    12    5    9 ar   
    13    5   29 1    
    14    6    7 ar   
    15    6   10 ar   
    16    6   30 1    
    17    7   13 1    
    18    8   17 1    
    19    9   11 ar   
    20    9   21 1    
    21   10   11 ar   
    22   10   22 1    
    23   11   23 1    
    24   12   24 1    
    25   13   19 am   BACKBONE|DICT|INTERRES
    26   13   20 2    
    27   14   21 1    
    28   14   31 1    
    29   14   32 1    
    30   14   33 1    
    31   15   22 1    
    32   15   34 1    
    33   15   35 1    
    34   15   36 1    
    35   16   23 1    
    36   16   37 1    
    37   16   38 1    
    38   16   39 1    
    39   17   18 1    
    40   17   40 1    
    41   17   41 1    
    42   18   19 1    
    43   18   42 1    
    44   18   43 1    
    45   19   44 1    
@<TRIPOS>SUBSTRUCTURE
     1 UNK         1 GROUP             0       ****    0 ROOT    
@<TRIPOS>MOLECULE
ZINC00038392_30
44   45    1
SMALL
USER_CHARGES


@<TRIPOS>ATOM
      1 C1         -7.8922   -5.8148   38.6047 C.ar      1 UNK        -0.1150 
      2 C2         -6.7573   -3.8766   39.5501 C.ar      1 UNK        -0.1150 
      3 C3         -7.0269   -5.2598   39.5715 C.ar      1 UNK        -0.1150 
      4 C4         -8.4455   -5.0088   37.5816 C.ar      1 UNK         0.0850 
      5 C5         -7.3054   -3.0492   38.5411 C.ar      1 UNK         0.0850 
      6 C6         -8.1361   -3.6286   37.5559 C.ar      1 UNK         0.0850 
      7 C7         -6.4554   -6.1071   40.6732 C.2       1 UNK         0.6150 
      8 C8         -5.9659   -9.5962   41.0442 C.3       1 UNK        -0.1200 
      9 C9         -5.8941   -8.9673   38.5882 C.3       1 UNK        -0.1200 
     10 C10        -5.3653   -8.2155   41.3686 C.3       1 UNK        -0.0500 
     11 C11        -5.2952   -7.6128   39.0116 C.3       1 UNK        -0.0500 
     12 C12        -5.5780  -10.0625   39.6264 C.3       1 UNK        -0.0600 
     13 C13        -6.2473  -11.3958   39.2662 C.3       1 UNK        -0.1800 
     14 C14        -9.6325   -6.8692   36.6220 C.3       1 UNK         0.1100 
     15 C15        -6.3006   -1.0712   39.4688 C.3       1 UNK         0.1100 
     16 C16        -8.0052   -2.9145   35.3392 C.3       1 UNK         0.1100 
     17 N17        -5.7886   -7.2454   40.3489 N.am      1 UNK        -0.1400 
     18 O18        -6.6126   -5.7346   41.8354 O.2       1 UNK        -0.5000 
     19 O19        -9.2853   -5.4932   36.5994 O.3       1 UNK        -0.2850 
     20 O20        -7.0704   -1.6926   38.4507 O.3       1 UNK        -0.2850 
     21 O21        -8.6724   -2.8209   36.5860 O.3       1 UNK        -0.2850 
     22 H22        -8.1223   -6.8661   38.6714 H         1 UNK         0.1150 
     23 H23        -6.1228   -3.4729   40.3249 H         1 UNK         0.1150 
     24 H24        -5.6300  -10.3250   41.7832 H         1 UNK         0.0600 
     25 H25        -7.0523   -9.5467   41.1354 H         1 UNK         0.0600 
     26 H26        -6.9736   -8.8734   38.4672 H         1 UNK         0.0600 
     27 H27        -5.5010   -9.2540   37.6118 H         1 UNK         0.0600 
     28 H28        -5.6682   -7.9240   42.3759 H         1 UNK         0.0600 
     29 H29        -4.2759   -8.2676   41.3880 H         1 UNK         0.0600 
     30 H30        -4.2078   -7.6904   39.0532 H         1 UNK         0.0600 
     31 H31        -5.4919   -6.8584   38.2509 H         1 UNK         0.0600 
     32 H32        -4.4985  -10.2242   39.6172 H         1 UNK         0.0600 
     33 H33        -5.9293  -11.7433   38.2827 H         1 UNK         0.0600 
     34 H34        -7.3341  -11.3059   39.2519 H         1 UNK         0.0600 
     35 H35        -5.9887  -12.1725   39.9868 H         1 UNK         0.0600 
     36 H36       -10.3043   -7.0833   35.7909 H         1 UNK         0.0300 
     37 H37       -10.1535   -7.1341   37.5430 H         1 UNK         0.0300 
     38 H38        -8.7531   -7.5041   36.5063 H         1 UNK         0.0300 
     39 H39        -6.2470   -0.0001   39.2743 H         1 UNK         0.0300 
     40 H40        -5.2797   -1.4545   39.4861 H         1 UNK         0.0300 
     41 H41        -6.7548   -1.2045   40.4518 H         1 UNK         0.0300 
     42 H42        -8.4586   -2.2203   34.6321 H         1 UNK         0.0300 
     43 H43        -8.0751   -3.9161   34.9140 H         1 UNK         0.0300 
     44 H44        -6.9517   -2.6496   35.4397 H         1 UNK         0.0300 
@<TRIPOS>BOND
     1    1    3 ar   
     2    1    4 ar   
     3    1   22 1    
     4    2    3 ar   
     5    2    5 ar   
     6    2   23 1    
     7    3    7 1    
     8    4    6 ar   
     9    4   19 1    
    10    5    6 ar   
    11    5   20 1    
    12    6   21 1    
    13    7   17 am   BACKBONE|DICT|INTERRES
    14    7   18 2    
    15    8   10 1    
    16    8   12 1    
    17    8   24 1    
    18    8   25 1    
    19    9   11 1    
    20    9   12 1    
    21    9   26 1    
    22    9   27 1    
    23   10   17 1    
    24   10   28 1    
    25   10   29 1    
    26   11   17 1    
    27   11   30 1    
    28   11   31 1    
    29   12   13 1    
    30   12   32 1    
    31   13   33 1    
    32   13   34 1    
    33   13   35 1    
    34   14   19 1    
    35   14   36 1    
    36   14   37 1    
    37   14   38 1    
    38   15   20 1    
    39   15   39 1    
    40   15   40 1    
    41   15   41 1    
    42   16   21 1    
    43   16   42 1    
    44   16   43 1    
    45   16   44 1    
@<TRIPOS>SUBSTRUCTURE
     1 UNK         1 GROUP             0       ****    0 ROOT    
@<TRIPOS>MOLECULE
ZINC00073274_12
47   48    1
SMALL
USER_CHARGES


@<TRIPOS>ATOM
      1 C1         -6.7789   -3.9156   39.5292 C.ar      1 UNK        -0.1150 
      2 C2         -7.8400   -5.9396   38.6781 C.ar      1 UNK        -0.1150 
      3 C3         -7.0040   -5.3039   39.6212 C.ar      1 UNK        -0.1150 
      4 C4         -7.3457   -3.1613   38.4741 C.ar      1 UNK         0.0850 
      5 C5         -8.4148   -5.2058   37.6137 C.ar      1 UNK         0.0850 
      6 C6         -8.1533   -3.8201   37.5193 C.ar      1 UNK         0.0850 
      7 C7         -6.4073   -6.0817   40.7614 C.2       1 UNK         0.6150 
      8 C8         -5.2337   -9.9683   39.4612 C.3       1 UNK        -0.1200 
      9 C9         -6.0242   -9.7249   40.7493 C.3       1 UNK        -0.1200 
     10 C10        -5.3754   -8.7718   38.5186 C.3       1 UNK        -0.1200 
     11 C11        -5.6187   -8.4014   41.4350 C.3       1 UNK         0.0100 
     12 C12        -5.0213   -7.4432   39.2151 C.3       1 UNK         0.0100 
     13 C13        -6.3744   -8.3066   42.7810 C.3       1 UNK        -0.1800 
     14 C14        -3.5071   -7.2497   39.4324 C.3       1 UNK        -0.1800 
     15 C15        -6.3921   -1.1102   39.2888 C.3       1 UNK         0.1100 
     16 C16        -9.5477   -7.1442   36.7505 C.3       1 UNK         0.1100 
     17 C17        -7.9038   -3.0585   35.3375 C.3       1 UNK         0.1100 
     18 N18        -5.7878   -7.2654   40.4788 N.am      1 UNK        -0.1400 
     19 O19        -6.5379   -5.6195   41.8936 O.2       1 UNK        -0.5000 
     20 O20        -7.1526   -1.8047   38.3119 O.3       1 UNK        -0.2850 
     21 O21        -9.2226   -5.7665   36.6457 O.3       1 UNK        -0.2850 
     22 O22        -8.7137   -3.0968   36.4990 O.3       1 UNK        -0.2850 
     23 H23        -6.1624   -3.4523   40.2850 H         1 UNK         0.1150 
     24 H24        -8.0262   -6.9962   38.7922 H         1 UNK         0.1150 
     25 H25        -4.1822  -10.1330   39.6995 H         1 UNK         0.0600 
     26 H26        -5.5830  -10.8774   38.9702 H         1 UNK         0.0600 
     27 H27        -7.0919   -9.7105   40.5245 H         1 UNK         0.0600 
     28 H28        -5.8657  -10.5659   41.4260 H         1 UNK         0.0600 
     29 H29        -4.7525   -8.9149   37.6346 H         1 UNK         0.0600 
     30 H30        -6.4029   -8.7253   38.1557 H         1 UNK         0.0600 
     31 H31        -4.5609   -8.4589   41.6907 H         1 UNK         0.0600 
     32 H32        -5.2744   -6.6716   38.4893 H         1 UNK         0.0600 
     33 H33        -5.9875   -7.5027   43.4079 H         1 UNK         0.0600 
     34 H34        -6.2595   -9.2222   43.3614 H         1 UNK         0.0600 
     35 H35        -7.4434   -8.1445   42.6380 H         1 UNK         0.0600 
     36 H36        -3.2957   -6.2853   39.8957 H         1 UNK         0.0600 
     37 H37        -2.9731   -7.2763   38.4818 H         1 UNK         0.0600 
     38 H38        -3.0715   -8.0224   40.0646 H         1 UNK         0.0600 
     39 H39        -6.3607   -0.0514   39.0325 H         1 UNK         0.0300 
     40 H40        -5.3636   -1.4714   39.3236 H         1 UNK         0.0300 
     41 H41        -6.8406   -1.1957   40.2795 H         1 UNK         0.0300 
     42 H42       -10.2083   -7.4190   35.9283 H         1 UNK         0.0300 
     43 H43       -10.0734   -7.3605   37.6816 H         1 UNK         0.0300 
     44 H44        -8.6574   -7.7707   36.6820 H         1 UNK         0.0300 
     45 H45        -8.3895   -2.4524   34.5731 H         1 UNK         0.0300 
     46 H46        -7.7519   -4.0583   34.9281 H         1 UNK         0.0300 
     47 H47        -6.9298   -2.6152   35.5495 H         1 UNK         0.0300 
@<TRIPOS>BOND
     1    1    3 ar   
     2    1    4 ar   
     3    1   23 1    
     4    2    3 ar   
     5    2    5 ar   
     6    2   24 1    
     7    3    7 1    
     8    4    6 ar   
     9    4   20 1    
    10    5    6 ar   
    11    5   21 1    
    12    6   22 1    
    13    7   18 am   BACKBONE|DICT|INTERRES
    14    7   19 2    
    15    8    9 1    
    16    8   10 1    
    17    8   25 1    
    18    8   26 1    
    19    9   11 1    
    20    9   27 1    
    21    9   28 1    
    22   10   12 1    
    23   10   29 1    
    24   10   30 1    
    25   11   13 1    
    26   11   18 1    
    27   11   31 1    
    28   12   14 1    
    29   12   18 1    
    30   12   32 1    
    31   13   33 1    
    32   13   34 1    
    33   13   35 1    
    34   14   36 1    
    35   14   37 1    
    36   14   38 1    
    37   15   20 1    
    38   15   39 1    
    39   15   40 1    
    40   15   41 1    
    41   16   21 1    
    42   16   42 1    
    43   16   43 1    
    44   16   44 1    
    45   17   22 1    
    46   17   45 1    
    47   17   46 1    
    48   17   47 1    
@<TRIPOS>SUBSTRUCTURE
     1 UNK         1 GROUP             0       ****    0 ROOT    
@<TRIPOS>MOLECULE
ZINC00086457_46
43   45    1
SMALL
USER_CHARGES


@<TRIPOS>ATOM
      1 C1         -7.8334   -7.2190   40.9329 C.1       1 UNK         0.4600 
      2 C2         -3.3765  -12.5490   36.0714 C.ar      1 UNK        -0.1150 
      3 C3         -2.5947  -12.1060   37.1573 C.ar      1 UNK        -0.1150 
      4 C4         -4.6251  -11.9515   35.8068 C.ar      1 UNK        -0.1150 
      5 C5         -3.0573  -11.0628   37.9845 C.ar      1 UNK        -0.1150 
      6 C6         -5.0970  -10.9078   36.6275 C.ar      1 UNK        -0.1150 
      7 C7         -6.8694   -4.7908   39.2532 C.ar      1 UNK        -0.1150 
      8 C8         -7.0414   -3.5428   38.6286 C.ar      1 UNK        -0.1150 
      9 C9         -8.5662   -5.7501   37.7965 C.ar      1 UNK        -0.1150 
     10 C10        -4.3105  -10.4670   37.7155 C.ar      1 UNK         0.0631 
     11 C11        -7.6320   -5.9016   38.8415 C.ar      1 UNK        -0.1150 
     12 C12        -7.9800   -3.3847   37.5789 C.ar      1 UNK         0.0850 
     13 C13        -8.7480   -4.4962   37.1604 C.ar      1 UNK         0.0850 
     14 C14        -4.8113   -9.3682   38.5731 C.2       1 UNK         0.1657 
     15 C15        -4.0204   -8.8634   39.7348 C.3       1 UNK        -0.0721 
     16 C16        -4.9783   -7.8191   40.2841 C.3       1 UNK         0.0025 
     17 C17        -7.4356   -1.0570   37.3095 C.3       1 UNK         0.1100 
     18 C18       -10.4407   -5.3736   35.6912 C.3       1 UNK         0.1100 
     19 C19        -7.4452   -7.2567   39.5094 C.3       1 UNK         0.2775 
     20 N20        -8.1331   -7.1902   42.0520 N.1       1 UNK        -0.5600 
     21 N21        -5.9366   -8.7723   38.4023 N.2       1 UNK        -0.3551 
     22 N22        -6.0862   -7.7910   39.3295 N.pl3     1 UNK        -0.1666 
     23 O23        -8.1977   -2.1901   36.9237 O.3       1 UNK        -0.2850 
     24 O24        -9.6460   -4.2845   36.1344 O.3       1 UNK        -0.2850 
     25 H25        -3.0178  -13.3490   35.4394 H         1 UNK         0.1150 
     26 H26        -1.6379  -12.5672   37.3553 H         1 UNK         0.1150 
     27 H27        -5.2217  -12.2926   34.9732 H         1 UNK         0.1150 
     28 H28        -2.4406  -10.7394   38.8095 H         1 UNK         0.1150 
     29 H29        -6.0549  -10.4543   36.4148 H         1 UNK         0.1150 
     30 H30        -6.1483   -4.8918   40.0515 H         1 UNK         0.1150 
     31 H31        -6.4383   -2.7182   38.9747 H         1 UNK         0.1150 
     32 H32        -9.1338   -6.6149   37.4910 H         1 UNK         0.1150 
     33 H33        -3.8228   -9.6507   40.4628 H         1 UNK         0.0600 
     34 H34        -3.0779   -8.4222   39.4090 H         1 UNK         0.0600 
     35 H35        -5.3449   -8.0967   41.2734 H         1 UNK         0.0600 
     36 H36        -4.5160   -6.8333   40.3446 H         1 UNK         0.0600 
     37 H37        -7.7245   -0.2045   36.6951 H         1 UNK         0.0300 
     38 H38        -6.3683   -1.2243   37.1590 H         1 UNK         0.0300 
     39 H39        -7.6183   -0.7893   38.3509 H         1 UNK         0.0300 
     40 H40       -11.0939   -5.0363   34.8866 H         1 UNK         0.0300 
     41 H41       -11.0756   -5.7559   36.4916 H         1 UNK         0.0300 
     42 H42        -9.8244   -6.1828   35.2977 H         1 UNK         0.0300 
     43 H43        -8.1449   -7.9583   39.0535 H         1 UNK         0.0600 
@<TRIPOS>BOND
     1    1   19 1    
     2    1   20 3    
     3    2    3 ar   
     4    2    4 ar   
     5    2   25 1    
     6    3    5 ar   
     7    3   26 1    
     8    4    6 ar   
     9    4   27 1    
    10    5   10 ar   
    11    5   28 1    
    12    6   10 ar   
    13    6   29 1    
    14    7    8 ar   
    15    7   11 ar   
    16    7   30 1    
    17    8   12 ar   
    18    8   31 1    
    19    9   11 ar   
    20    9   13 ar   
    21    9   32 1    
    22   10   14 1    
    23   11   19 1    
    24   12   13 ar   
    25   12   23 1    
    26   13   24 1    
    27   14   15 1    
    28   14   21 2    
    29   15   16 1    
    30   15   33 1    
    31   15   34 1    
    32   16   22 1    
    33   16   35 1    
    34   16   36 1    
    35   17   23 1    
    36   17   37 1    
    37   17   38 1    
    38   17   39 1    
    39   18   24 1    
    40   18   40 1    
    41   18   41 1    
    42   18   42 1    
    43   19   22 1    
    44   19   43 1    
    45   21   22 1    
@<TRIPOS>SUBSTRUCTURE
     1 UNK         1 GROUP             0       ****    0 ROOT    
@<TRIPOS>MOLECULE
ZINC00130519_74
36   38    1
SMALL
USER_CHARGES


@<TRIPOS>ATOM
      1 C1        -13.4112  -19.5070   35.9315 C.2       1 UNK        -0.0738 
      2 C2        -16.5273  -14.4078   38.2861 C.ar      1 UNK        -0.1150 
      3 C3        -17.1179  -13.6289   37.2767 C.ar      1 UNK        -0.1150 
      4 C4        -13.8166  -18.3989   36.7336 C.2       1 UNK        -0.0738 
      5 C5        -13.4340  -17.7956   40.5478 C.ar      1 UNK        -0.3200 
      6 C6        -15.5727  -12.3950   39.2500 C.ar      1 UNK        -0.1150 
      7 C7        -13.9063  -16.6546   41.1331 C.ar      1 UNK         0.0360 
      8 C8        -12.8034  -20.4961   36.6609 C.2       1 UNK        -0.3255 
      9 C9        -15.7266  -13.7973   39.2719 C.ar      1 UNK        -0.1150 
     10 C10       -16.9401  -12.2323   37.2261 C.ar      1 UNK         0.0850 
     11 C11       -16.1668  -11.5916   38.2412 C.ar      1 UNK         0.0850 
     12 C12       -13.7695  -17.6474   39.1722 C.ar      1 UNK         0.3380 
     13 C13       -13.5134  -18.5574   38.0622 C.2       1 UNK        -0.0637 
     14 C14       -15.0970  -14.5927   40.3860 C.2       1 UNK         0.7375 
     15 C15       -17.2581  -10.2820   35.8129 C.3       1 UNK         0.1100 
     16 C16       -15.2878   -9.5858   39.2675 C.3       1 UNK         0.1100 
     17 N17       -14.3969  -16.5030   38.9420 N.2       1 UNK        -0.5310 
     18 N18       -14.4919  -15.8865   40.1454 N.pl3     1 UNK         0.0695 
     19 O19       -15.0174  -14.1301   41.5269 O.2       1 UNK        -0.5000 
     20 O20       -17.5780  -11.6187   36.1650 O.3       1 UNK        -0.2850 
     21 O21       -16.0275  -10.2176   38.2323 O.3       1 UNK        -0.2850 
     22 S22       -12.7157  -20.0835   38.3533 S.3       1 UNK         0.0328 
     23 H23       -13.5782  -19.5358   34.8641 H         1 UNK         0.1211 
     24 H24       -16.6913  -15.4760   38.2928 H         1 UNK         0.1150 
     25 H25       -17.7184  -14.1099   36.5186 H         1 UNK         0.1150 
     26 H26       -14.3102  -17.5296   36.3233 H         1 UNK         0.1211 
     27 H27       -12.9216  -18.6158   41.0277 H         1 UNK         0.1500 
     28 H28       -14.9829  -11.9542   40.0390 H         1 UNK         0.1150 
     29 H29       -13.8758  -16.3258   42.1628 H         1 UNK         0.1350 
     30 H30       -12.4024  -21.4374   36.3128 H         1 UNK         0.2618 
     31 H31       -17.6791   -9.5723   36.5255 H         1 UNK         0.0300 
     32 H32       -17.6933  -10.0583   34.8393 H         1 UNK         0.0300 
     33 H33       -16.1813  -10.1300   35.7290 H         1 UNK         0.0300 
     34 H34       -15.7325   -9.7707   40.2462 H         1 UNK         0.0300 
     35 H35       -15.2925   -8.5081   39.1046 H         1 UNK         0.0300 
     36 H36       -14.2467   -9.9115   39.2717 H         1 UNK         0.0300 
@<TRIPOS>BOND
     1    1    4 1    
     2    1    8 2    
     3    1   23 1    
     4    2    3 ar   
     5    2    9 ar   
     6    2   24 1    
     7    3   10 ar   
     8    3   25 1    
     9    4   13 2    
    10    4   26 1    
    11    5    7 ar   
    12    5   12 ar   
    13    5   27 1    
    14    6    9 ar   
    15    6   11 ar   
    16    6   28 1    
    17    7   18 ar   
    18    7   29 1    
    19    8   22 1    
    20    8   30 1    
    21    9   14 1    
    22   10   11 ar   
    23   10   20 1    
    24   11   21 1    
    25   12   13 1    
    26   12   17 ar   
    27   13   22 1    
    28   14   18 1    
    29   14   19 2    
    30   15   20 1    
    31   15   31 1    
    32   15   32 1    
    33   15   33 1    
    34   16   21 1    
    35   16   34 1    
    36   16   35 1    
    37   16   36 1    
    38   17   18 ar   
@<TRIPOS>SUBSTRUCTURE
     1 UNK         1 GROUP             0       ****    0 ROOT    
@<TRIPOS>MOLECULE
ZINC00137316_10
51   52    1
SMALL
USER_CHARGES


@<TRIPOS>ATOM
      1 C1         -6.5884   -3.6693   39.5987 C.ar      1 UNK        -0.1150 
      2 C2         -7.1928   -5.7561   38.5116 C.ar      1 UNK        -0.1150 
      3 C3         -6.4488   -5.0678   39.4953 C.ar      1 UNK        -0.1150 
      4 C4         -5.3916   -7.2593   40.2541 C.ar      1 UNK        -0.1150 
      5 C5         -4.4831   -7.7772   39.2879 C.ar      1 UNK        -0.1150 
      6 C6         -6.2110   -8.1435   41.0114 C.ar      1 UNK        -0.1150 
      7 C7         -4.4311   -9.1749   39.0494 C.ar      1 UNK        -0.1150 
      8 C8         -6.1489   -9.5403   40.7691 C.ar      1 UNK        -0.1150 
      9 C9         -5.2278  -10.0576   39.8225 C.ar      1 UNK        -0.1150 
     10 C10        -7.4451   -2.9577   38.7269 C.ar      1 UNK         0.0850 
     11 C11        -8.0619   -5.0708   37.6273 C.ar      1 UNK         0.0850 
     12 C12        -8.1679   -3.6534   37.7298 C.ar      1 UNK         0.0850 
     13 C13        -5.5268   -5.7809   40.4314 C.2       1 UNK         0.7000 
     14 C14        -3.5580   -6.8452   38.4970 C.3       1 UNK        -0.0650 
     15 C15        -7.1666   -7.6103   42.0851 C.3       1 UNK        -0.0650 
     16 C16        -3.5276   -9.7300   37.9487 C.3       1 UNK        -0.0650 
     17 C17        -7.0847  -10.4897   41.5169 C.3       1 UNK        -0.0650 
     18 C18        -5.0847  -11.5686   39.6464 C.3       1 UNK        -0.0650 
     19 C19        -6.9205   -0.8548   39.7795 C.3       1 UNK         0.1100 
     20 C20        -8.7597   -7.1558   36.6192 C.3       1 UNK         0.1100 
     21 C21        -9.1700   -3.2522   35.5730 C.3       1 UNK         0.1100 
     22 O22        -4.9027   -5.1856   41.3110 O.2       1 UNK        -0.4700 
     23 O23        -7.6146   -1.5885   38.7819 O.3       1 UNK        -0.2850 
     24 O24        -8.8253   -5.7380   36.6888 O.3       1 UNK        -0.2850 
     25 O25        -8.9747   -2.8713   36.9263 O.3       1 UNK        -0.2850 
     26 H26        -6.0221   -3.1541   40.3599 H         1 UNK         0.1150 
     27 H27        -7.0930   -6.8281   38.4484 H         1 UNK         0.1150 
     28 H28        -2.5834   -7.3036   38.3314 H         1 UNK         0.0600 
     29 H29        -3.9981   -6.6087   37.5278 H         1 UNK         0.0600 
     30 H30        -3.3402   -5.9088   39.0089 H         1 UNK         0.0600 
     31 H31        -8.1745   -7.5154   41.6802 H         1 UNK         0.0600 
     32 H32        -7.2013   -8.2767   42.9465 H         1 UNK         0.0600 
     33 H33        -6.8742   -6.6445   42.4946 H         1 UNK         0.0600 
     34 H34        -2.5443   -9.9721   38.3522 H         1 UNK         0.0600 
     35 H35        -3.9466  -10.6256   37.4920 H         1 UNK         0.0600 
     36 H36        -3.4017   -9.0299   37.1242 H         1 UNK         0.0600 
     37 H37        -7.3565  -11.3529   40.9108 H         1 UNK         0.0600 
     38 H38        -6.6104  -10.8435   42.4326 H         1 UNK         0.0600 
     39 H39        -8.0329  -10.0213   41.7760 H         1 UNK         0.0600 
     40 H40        -4.0746  -11.8534   39.3557 H         1 UNK         0.0600 
     41 H41        -5.2681  -12.1057   40.5761 H         1 UNK         0.0600 
     42 H42        -5.7810  -11.9314   38.8904 H         1 UNK         0.0600 
     43 H43        -7.1768    0.2007   39.6915 H         1 UNK         0.0300 
     44 H44        -5.8397   -0.9420   39.6592 H         1 UNK         0.0300 
     45 H45        -7.2021   -1.1791   40.7823 H         1 UNK         0.0300 
     46 H46        -9.4337   -7.5067   35.8379 H         1 UNK         0.0300 
     47 H47        -9.0750   -7.6176   37.5560 H         1 UNK         0.0300 
     48 H48        -7.7560   -7.4987   36.3639 H         1 UNK         0.0300 
     49 H49        -9.4206   -2.3674   34.9881 H         1 UNK         0.0300 
     50 H50       -10.0027   -3.9492   35.4762 H         1 UNK         0.0300 
     51 H51        -8.2731   -3.6919   35.1339 H         1 UNK         0.0300 
@<TRIPOS>BOND
     1    1    3 ar   
     2    1   10 ar   
     3    1   26 1    
     4    2    3 ar   
     5    2   11 ar   
     6    2   27 1    
     7    3   13 1    
     8    4    5 ar   
     9    4    6 ar   
    10    4   13 1    
    11    5    7 ar   
    12    5   14 1    
    13    6    8 ar   
    14    6   15 1    
    15    7    9 ar   
    16    7   16 1    
    17    8    9 ar   
    18    8   17 1    
    19    9   18 1    
    20   10   12 ar   
    21   10   23 1    
    22   11   12 ar   
    23   11   24 1    
    24   12   25 1    
    25   13   22 2    
    26   14   28 1    
    27   14   29 1    
    28   14   30 1    
    29   15   31 1    
    30   15   32 1    
    31   15   33 1    
    32   16   34 1    
    33   16   35 1    
    34   16   36 1    
    35   17   37 1    
    36   17   38 1    
    37   17   39 1    
    38   18   40 1    
    39   18   41 1    
    40   18   42 1    
    41   19   23 1    
    42   19   43 1    
    43   19   44 1    
    44   19   45 1    
    45   20   24 1    
    46   20   46 1    
    47   20   47 1    
    48   20   48 1    
    49   21   25 1    
    50   21   49 1    
    51   21   50 1    
    52   21   51 1    
@<TRIPOS>SUBSTRUCTURE
     1 UNK         1 GROUP             0       ****    0 ROOT    
@<TRIPOS>MOLECULE
ZINC00142142_18
42   44    1
SMALL
USER_CHARGES


@<TRIPOS>ATOM
      1 C1         -4.3154   -9.3889   36.9333 C.ar      1 UNK        -0.1150 
      2 C2         -4.6272   -8.0174   36.7901 C.ar      1 UNK        -0.1150 
      3 C3         -4.5027  -10.0368   38.1724 C.ar      1 UNK        -0.1150 
      4 C4         -5.1445   -7.2797   37.8773 C.ar      1 UNK        -0.1150 
      5 C5         -6.6897   -4.0269   39.5322 C.ar      1 UNK        -0.1150 
      6 C6         -7.8973   -5.9395   38.6234 C.ar      1 UNK        -0.1150 
      7 C7         -6.9928   -5.4030   39.5652 C.ar      1 UNK        -0.1150 
      8 C8         -5.0217   -9.2878   39.2423 C.ar      1 UNK        -0.1150 
      9 C9         -5.3655   -7.9456   39.1044 C.ar      1 UNK        -0.0383 
     10 C10        -7.2423   -3.1895   38.5342 C.ar      1 UNK         0.0850 
     11 C11        -8.4538   -5.1235   37.6097 C.ar      1 UNK         0.0850 
     12 C12        -8.1110   -3.7513   37.5720 C.ar      1 UNK         0.0850 
     13 C13        -6.4197   -6.2628   40.6558 C.2       1 UNK         0.6150 
     14 C14        -5.2499   -9.7674   40.6465 C.3       1 UNK        -0.0050 
     15 C15        -5.6529   -8.4745   41.3889 C.3       1 UNK        -0.0500 
     16 C16        -6.1628   -1.2356   39.4273 C.3       1 UNK         0.1100 
     17 C17        -9.6717   -6.9673   36.6579 C.3       1 UNK         0.1100 
     18 C18        -8.0001   -3.0499   35.3521 C.3       1 UNK         0.1100 
     19 N19        -5.8479   -7.4542   40.3484 N.am      1 UNK        -0.0317 
     20 O20        -6.4757   -5.8508   41.8154 O.2       1 UNK        -0.5000 
     21 O21        -6.9745   -1.8399   38.4319 O.3       1 UNK        -0.2850 
     22 O22        -9.3245   -5.5908   36.6465 O.3       1 UNK        -0.2850 
     23 O23        -8.6454   -2.9348   36.6087 O.3       1 UNK        -0.2850 
     24 H24        -3.9161   -9.9399   36.0939 H         1 UNK         0.1150 
     25 H25        -4.4596   -7.5265   35.8423 H         1 UNK         0.1150 
     26 H26        -4.2445  -11.0787   38.2958 H         1 UNK         0.1150 
     27 H27        -5.3455   -6.2275   37.7454 H         1 UNK         0.1150 
     28 H28        -6.0253   -3.6365   40.2886 H         1 UNK         0.1150 
     29 H29        -8.1411   -6.9888   38.6911 H         1 UNK         0.1150 
     30 H30        -6.0528  -10.5052   40.6585 H         1 UNK         0.0600 
     31 H31        -4.3486  -10.2181   41.0635 H         1 UNK         0.0600 
     32 H32        -6.5519   -8.6212   41.9897 H         1 UNK         0.0600 
     33 H33        -4.8533   -8.1470   42.0551 H         1 UNK         0.0600 
     34 H34        -6.0841   -0.1674   39.2258 H         1 UNK         0.0300 
     35 H35        -5.1528   -1.6470   39.4218 H         1 UNK         0.0300 
     36 H36        -6.5965   -1.3516   40.4217 H         1 UNK         0.0300 
     37 H37       -10.3519   -7.1727   35.8316 H         1 UNK         0.0300 
     38 H38       -10.1838   -7.2412   37.5813 H         1 UNK         0.0300 
     39 H39        -8.7936   -7.6015   36.5274 H         1 UNK         0.0300 
     40 H40        -8.4418   -2.3423   34.6509 H         1 UNK         0.0300 
     41 H41        -8.1081   -4.0496   34.9306 H         1 UNK         0.0300 
     42 H42        -6.9372   -2.8193   35.4360 H         1 UNK         0.0300 
@<TRIPOS>BOND
     1    1    2 ar   
     2    1    3 ar   
     3    1   24 1    
     4    2    4 ar   
     5    2   25 1    
     6    3    8 ar   
     7    3   26 1    
     8    4    9 ar   
     9    4   27 1    
    10    5    7 ar   
    11    5   10 ar   
    12    5   28 1    
    13    6    7 ar   
    14    6   11 ar   
    15    6   29 1    
    16    7   13 1    
    17    8    9 ar   
    18    8   14 1    
    19    9   19 1    
    20   10   12 ar   
    21   10   21 1    
    22   11   12 ar   
    23   11   22 1    
    24   12   23 1    
    25   13   19 am   BACKBONE|DICT|INTERRES
    26   13   20 2    
    27   14   15 1    
    28   14   30 1    
    29   14   31 1    
    30   15   19 1    
    31   15   32 1    
    32   15   33 1    
    33   16   21 1    
    34   16   34 1    
    35   16   35 1    
    36   16   36 1    
    37   17   22 1    
    38   17   37 1    
    39   17   38 1    
    40   17   39 1    
    41   18   23 1    
    42   18   40 1    
    43   18   41 1    
    44   18   42 1    
@<TRIPOS>SUBSTRUCTURE
     1 UNK         1 GROUP             0       ****    0 ROOT    
@<TRIPOS>MOLECULE
ZINC00167182_2
37   38    1
SMALL
USER_CHARGES


@<TRIPOS>ATOM
      1 C1         -6.6289   -8.0171   42.5180 C.1       1 UNK         0.3950 
      2 C2         -5.1474  -10.2189   39.8466 C.ar      1 UNK        -0.1150 
      3 C3         -4.7379   -9.2808   38.8822 C.ar      1 UNK        -0.1150 
      4 C4         -5.7594   -9.7823   41.0369 C.ar      1 UNK        -0.1150 
      5 C5         -4.9416   -7.9066   39.1087 C.ar      1 UNK        -0.1150 
      6 C6         -7.5213   -5.9601   38.6716 C.ar      1 UNK        -0.1150 
      7 C7         -6.5251   -3.8643   39.4133 C.ar      1 UNK        -0.1150 
      8 C8         -5.9700   -8.4064   41.2745 C.ar      1 UNK         0.0350 
      9 C9         -5.5613   -7.4557   40.2982 C.ar      1 UNK        -0.1150 
     10 C10        -6.6086   -5.2709   39.5030 C.ar      1 UNK        -0.1150 
     11 C11        -8.3272   -5.2596   37.7432 C.ar      1 UNK         0.0850 
     12 C12        -7.3268   -3.1421   38.4969 C.ar      1 UNK         0.0850 
     13 C13        -8.2173   -3.8544   37.6585 C.ar      1 UNK         0.0850 
     14 C14        -5.7460   -5.9875   40.4887 C.2       1 UNK         0.7000 
     15 C15        -9.3553   -7.2849   36.9437 C.3       1 UNK         0.1100 
     16 C16        -6.4453   -1.0286   39.2422 C.3       1 UNK         0.1100 
     17 C17        -8.3283   -2.6954   35.6291 C.3       1 UNK         0.1100 
     18 N18        -7.1550   -7.7112   43.5009 N.1       1 UNK        -0.4300 
     19 O19        -5.1897   -5.3968   41.4132 O.2       1 UNK        -0.4700 
     20 O20        -9.2235   -5.8726   36.8917 O.3       1 UNK        -0.2850 
     21 O21        -7.2966   -1.7673   38.3786 O.3       1 UNK        -0.2850 
     22 O22        -9.0190   -3.1904   36.7644 O.3       1 UNK        -0.2850 
     23 H23        -4.9896  -11.2746   39.6755 H         1 UNK         0.1150 
     24 H24        -4.2632   -9.6153   37.9702 H         1 UNK         0.1150 
     25 H25        -6.0700  -10.5124   41.7723 H         1 UNK         0.1150 
     26 H26        -4.6162   -7.1940   38.3626 H         1 UNK         0.1150 
     27 H27        -7.6020   -7.0323   38.7560 H         1 UNK         0.1150 
     28 H28        -5.8348   -3.3518   40.0669 H         1 UNK         0.1150 
     29 H29       -10.0910   -7.6031   36.2052 H         1 UNK         0.0300 
     30 H30        -9.7055   -7.6167   37.9220 H         1 UNK         0.0300 
     31 H31        -8.4143   -7.7828   36.7060 H         1 UNK         0.0300 
     32 H32        -6.5559    0.0350   39.0316 H         1 UNK         0.0300 
     33 H33        -5.3972   -1.2873   39.0857 H         1 UNK         0.0300 
     34 H34        -6.7057   -1.1850   40.2900 H         1 UNK         0.0300 
     35 H35        -9.0482   -2.2995   34.9130 H         1 UNK         0.0300 
     36 H36        -7.7673   -3.4890   35.1333 H         1 UNK         0.0300 
     37 H37        -7.6404   -1.8904   35.8866 H         1 UNK         0.0300 
@<TRIPOS>BOND
     1    1    8 1    
     2    1   18 3    
     3    2    3 ar   
     4    2    4 ar   
     5    2   23 1    
     6    3    5 ar   
     7    3   24 1    
     8    4    8 ar   
     9    4   25 1    
    10    5    9 ar   
    11    5   26 1    
    12    6   10 ar   
    13    6   11 ar   
    14    6   27 1    
    15    7   10 ar   
    16    7   12 ar   
    17    7   28 1    
    18    8    9 ar   
    19    9   14 1    
    20   10   14 1    
    21   11   13 ar   
    22   11   20 1    
    23   12   13 ar   
    24   12   21 1    
    25   13   22 1    
    26   14   19 2    
    27   15   20 1    
    28   15   29 1    
    29   15   30 1    
    30   15   31 1    
    31   16   21 1    
    32   16   32 1    
    33   16   33 1    
    34   16   34 1    
    35   17   22 1    
    36   17   35 1    
    37   17   36 1    
    38   17   37 1    
@<TRIPOS>SUBSTRUCTURE
     1 UNK         1 GROUP             0       ****    0 ROOT    
@<TRIPOS>MOLECULE
ZINC00190369_23
43   45    1
SMALL
USER_CHARGES


@<TRIPOS>ATOM
      1 C1         -9.9711  -17.4428   37.4246 C.ar      1 UNK        -0.1150 
      2 C2         -8.1684  -15.8998   36.8956 C.ar      1 UNK        -0.1150 
      3 C3         -9.2271  -18.5028   36.8716 C.ar      1 UNK        -0.1150 
      4 C4         -7.4217  -16.9587   36.3446 C.ar      1 UNK        -0.1150 
      5 C5        -11.4056  -14.9872   38.7037 C.2       1 UNK        -0.1540 
      6 C6        -11.6600  -13.6151   38.9807 C.2       1 UNK        -0.1540 
      7 C7         -9.4517  -16.1283   37.4433 C.ar      1 UNK        -0.4134 
      8 C8         -7.9498  -18.2643   36.3288 C.ar      1 UNK        -0.1150 
      9 C9        -10.2275  -15.0314   38.0124 C.2       1 UNK         0.5364 
     10 C10       -10.6261  -12.9032   38.4275 C.2       1 UNK         0.0080 
     11 C11       -10.3401  -11.4869   38.4094 C.2       1 UNK         0.7137 
     12 C12       -14.7440   -8.2980   38.0274 C.2       1 UNK         0.5000 
     13 C13       -12.6008  -11.0222   37.4192 C.3       1 UNK        -0.0500 
     14 C14       -11.3689   -9.1895   38.4554 C.3       1 UNK        -0.0500 
     15 C15       -13.8568  -10.6414   38.2254 C.3       1 UNK        -0.0500 
     16 C16       -12.6388   -8.7917   39.2357 C.3       1 UNK        -0.0500 
     17 C17        -7.1495  -19.4067   35.7389 C.3       1 UNK        -0.0650 
     18 C18       -15.9375   -8.7861   37.2085 C.3       1 UNK        -0.1800 
     19 N19       -11.3935  -10.6382   38.1727 N.pl3     1 UNK        -0.2625 
     20 N20       -13.8316   -9.1935   38.4764 N.am      1 UNK        -0.1400 
     21 O21       -14.6540   -7.0929   38.2511 O.2       1 UNK        -0.5000 
     22 O22        -9.7434  -13.7698   37.8464 O.3       1 UNK        -0.1900 
     23 S23        -8.7796  -11.0037   38.7645 S.2       1 UNK        -0.4762 
     24 H24       -10.9485  -17.6536   37.8328 H         1 UNK         0.1150 
     25 H25        -7.7402  -14.9069   36.8968 H         1 UNK         0.1150 
     26 H26        -9.6408  -19.5010   36.8669 H         1 UNK         0.1150 
     27 H27        -6.4411  -16.7616   35.9360 H         1 UNK         0.1150 
     28 H28       -12.0028  -15.8425   38.9805 H         1 UNK         0.1260 
     29 H29       -12.4943  -13.1966   39.5239 H         1 UNK         0.1260 
     30 H30       -12.6325  -12.0759   37.1459 H         1 UNK         0.0600 
     31 H31       -12.5973  -10.4830   36.4703 H         1 UNK         0.0600 
     32 H32       -11.3132   -8.6402   37.5143 H         1 UNK         0.0600 
     33 H33       -10.5046   -8.8785   39.0420 H         1 UNK         0.0600 
     34 H34       -14.7438  -10.9737   37.6882 H         1 UNK         0.0600 
     35 H35       -13.8755  -11.1680   39.1804 H         1 UNK         0.0600 
     36 H36       -12.6545   -9.2773   40.2124 H         1 UNK         0.0600 
     37 H37       -12.6140   -7.7195   39.4396 H         1 UNK         0.0600 
     38 H38        -7.7995  -20.0904   35.1921 H         1 UNK         0.0600 
     39 H39        -6.3902  -19.0393   35.0479 H         1 UNK         0.0600 
     40 H40        -6.6513  -19.9642   36.5323 H         1 UNK         0.0600 
     41 H41       -16.5513   -9.4723   37.7913 H         1 UNK         0.0600 
     42 H42       -15.6042   -9.2823   36.2973 H         1 UNK         0.0600 
     43 H43       -16.5642   -7.9426   36.9180 H         1 UNK         0.0600 
@<TRIPOS>BOND
     1    1    3 ar   
     2    1    7 ar   
     3    1   24 1    
     4    2    4 ar   
     5    2    7 ar   
     6    2   25 1    
     7    3    8 ar   
     8    3   26 1    
     9    4    8 ar   
    10    4   27 1    
    11    5    6 1    
    12    5    9 2    
    13    5   28 1    
    14    6   10 2    
    15    6   29 1    
    16    7    9 1    
    17    8   17 1    
    18    9   22 1    
    19   10   11 1    
    20   10   22 1    
    21   11   19 1    
    22   11   23 2    
    23   12   18 1    
    24   12   20 am   BACKBONE|DICT|INTERRES
    25   12   21 2    
    26   13   15 1    
    27   13   19 1    
    28   13   30 1    
    29   13   31 1    
    30   14   16 1    
    31   14   19 1    
    32   14   32 1    
    33   14   33 1    
    34   15   20 1    
    35   15   34 1    
    36   15   35 1    
    37   16   20 1    
    38   16   36 1    
    39   16   37 1    
    40   17   38 1    
    41   17   39 1    
    42   17   40 1    
    43   18   41 1    
    44   18   42 1    
    45   18   43 1    
@<TRIPOS>SUBSTRUCTURE
     1 UNK         1 GROUP             0       ****    0 ROOT    
@<TRIPOS>MOLECULE
ZINC00206769_1
42   43    1
SMALL
USER_CHARGES


@<TRIPOS>ATOM
      1 C1         -6.8485   -3.9708   39.6001 C.ar      1 UNK        -0.1150 
      2 C2         -7.9221   -5.8904   38.5563 C.ar      1 UNK        -0.1150 
      3 C3         -7.1248   -5.3540   39.5906 C.ar      1 UNK        -0.1150 
      4 C4         -5.2052   -9.5743   40.7693 C.ar      1 UNK        -0.2850 
      5 C5         -7.3227   -3.1286   38.5664 C.ar      1 UNK         0.0850 
      6 C6         -8.4018   -5.0702   37.5072 C.ar      1 UNK         0.0850 
      7 C7         -8.0840   -3.6910   37.5177 C.ar      1 UNK         0.0850 
      8 C8         -5.3944   -9.2532   39.3981 C.ar      1 UNK         0.2230 
      9 C9         -5.6491   -8.4637   41.4396 C.ar      1 UNK         0.0560 
     10 C10        -6.6319   -6.2121   40.7262 C.2       1 UNK         0.7375 
     11 C11        -4.6390  -10.8468   41.3392 C.3       1 UNK        -0.0650 
     12 C12        -5.0820  -10.0851   38.1900 C.3       1 UNK        -0.0650 
     13 C13        -5.6793   -8.2444   42.9232 C.3       1 UNK        -0.0650 
     14 C14        -6.3716   -1.1679   39.5842 C.3       1 UNK         0.1100 
     15 C15        -9.4784   -6.9277   36.4197 C.3       1 UNK         0.1100 
     16 C16        -7.8463   -3.0199   35.2925 C.3       1 UNK         0.1100 
     17 N17        -5.9177   -8.0557   39.2371 N.2       1 UNK        -0.5310 
     18 N18        -6.0873   -7.5444   40.4824 N.pl3     1 UNK         0.0695 
     19 O19        -6.6277   -5.7668   41.8756 O.2       1 UNK        -0.5000 
     20 O20        -7.0765   -1.7719   38.5104 O.3       1 UNK        -0.2850 
     21 O21        -9.1823   -5.5403   36.4702 O.3       1 UNK        -0.2850 
     22 O22        -8.5378   -2.8642   36.5211 O.3       1 UNK        -0.2850 
     23 H23        -6.2632   -3.5769   40.4174 H         1 UNK         0.1150 
     24 H24        -8.1567   -6.9430   38.5866 H         1 UNK         0.1150 
     25 H25        -3.6707  -10.6789   41.8110 H         1 UNK         0.0600 
     26 H26        -5.2962  -11.2778   42.0945 H         1 UNK         0.0600 
     27 H27        -4.4935  -11.6108   40.5755 H         1 UNK         0.0600 
     28 H28        -5.7507  -10.9432   38.1266 H         1 UNK         0.0600 
     29 H29        -5.1881   -9.5117   37.2685 H         1 UNK         0.0600 
     30 H30        -4.0592  -10.4590   38.2291 H         1 UNK         0.0600 
     31 H31        -5.0371   -7.4107   43.2082 H         1 UNK         0.0600 
     32 H32        -6.6915   -8.0315   43.2678 H         1 UNK         0.0600 
     33 H33        -5.3292   -9.1244   43.4614 H         1 UNK         0.0600 
     34 H34        -6.2882   -0.0967   39.4011 H         1 UNK         0.0300 
     35 H35        -5.3601   -1.5663   39.6713 H         1 UNK         0.0300 
     36 H36        -6.8970   -1.3000   40.5309 H         1 UNK         0.0300 
     37 H37       -10.0687   -7.1363   35.5276 H         1 UNK         0.0300 
     38 H38       -10.0657   -7.2407   37.2839 H         1 UNK         0.0300 
     39 H39        -8.5696   -7.5283   36.3611 H         1 UNK         0.0300 
     40 H40        -8.1895   -2.2655   34.5849 H         1 UNK         0.0300 
     41 H41        -8.0213   -3.9978   34.8441 H         1 UNK         0.0300 
     42 H42        -6.7721   -2.8865   35.4280 H         1 UNK         0.0300 
@<TRIPOS>BOND
     1    1    3 ar   
     2    1    5 ar   
     3    1   23 1    
     4    2    3 ar   
     5    2    6 ar   
     6    2   24 1    
     7    3   10 1    
     8    4    8 ar   
     9    4    9 ar   
    10    4   11 1    
    11    5    7 ar   
    12    5   20 1    
    13    6    7 ar   
    14    6   21 1    
    15    7   22 1    
    16    8   12 1    
    17    8   17 ar   
    18    9   13 1    
    19    9   18 ar   
    20   10   18 1    
    21   10   19 2    
    22   11   25 1    
    23   11   26 1    
    24   11   27 1    
    25   12   28 1    
    26   12   29 1    
    27   12   30 1    
    28   13   31 1    
    29   13   32 1    
    30   13   33 1    
    31   14   20 1    
    32   14   34 1    
    33   14   35 1    
    34   14   36 1    
    35   15   21 1    
    36   15   37 1    
    37   15   38 1    
    38   15   39 1    
    39   16   22 1    
    40   16   40 1    
    41   16   41 1    
    42   16   42 1    
    43   17   18 ar   
@<TRIPOS>SUBSTRUCTURE
     1 UNK         1 GROUP             0       ****    0 ROOT    
@<TRIPOS>MOLECULE
ZINC00208451_157
46   47    1
SMALL
USER_CHARGES


@<TRIPOS>ATOM
      1 C1         -9.2122  -16.4462   35.1269 C.ar      1 UNK        -0.1150 
      2 C2         -8.7495  -15.1287   35.3053 C.ar      1 UNK        -0.1150 
      3 C3        -12.7924  -11.2549   38.5625 C.ar      1 UNK        -0.1150 
      4 C4        -11.7558   -9.1212   39.0852 C.ar      1 UNK        -0.1150 
      5 C5        -10.1230  -16.4294   37.3908 C.ar      1 UNK        -0.1150 
      6 C6        -11.8525  -10.5102   39.3049 C.ar      1 UNK        -0.1150 
      7 C7         -9.8954  -17.1021   36.1713 C.ar      1 UNK        -0.1150 
      8 C8         -9.6891  -15.0994   37.5663 C.ar      1 UNK         0.2000 
      9 C9         -8.9781  -14.4625   36.5226 C.ar      1 UNK         0.1500 
     10 C10       -13.5988  -10.6324   37.5817 C.ar      1 UNK         0.0850 
     11 C11       -12.5619   -8.4665   38.1208 C.ar      1 UNK         0.0850 
     12 C12       -13.4730   -9.2430   37.3476 C.ar      1 UNK         0.0850 
     13 C13       -10.5150  -12.5418   40.1641 C.2       1 UNK        -0.1150 
     14 C14       -10.3536  -13.1453   38.9702 C.2       1 UNK        -0.0970 
     15 C15       -10.9719  -11.1422   40.3329 C.2       1 UNK         0.5850 
     16 C16       -10.3788  -18.5254   35.9801 C.3       1 UNK        -0.0650 
     17 C17       -14.6254  -12.7242   36.9654 C.3       1 UNK         0.1100 
     18 C18       -11.6458   -6.3168   38.7377 C.3       1 UNK         0.1100 
     19 C19       -13.8341   -7.6444   35.5807 C.3       1 UNK         0.1100 
     20 N20        -9.9418  -14.4595   38.7901 N.pl3     1 UNK        -0.5717 
     21 O21       -10.5955  -10.5008   41.3121 O.2       1 UNK        -0.4700 
     22 O22        -8.4675  -13.2172   36.7196 O.3       1 UNK        -0.5850 
     23 O23       -14.5185  -11.3170   36.8122 O.3       1 UNK        -0.2850 
     24 O24       -12.5073   -7.1001   37.9244 O.3       1 UNK        -0.2850 
     25 O25       -14.3019   -8.7271   36.3707 O.3       1 UNK        -0.2850 
     26 H26        -9.0286  -16.9526   34.1901 H         1 UNK         0.1150 
     27 H27        -8.2056  -14.6328   34.5148 H         1 UNK         0.1150 
     28 H28       -12.8914  -12.3099   38.7624 H         1 UNK         0.1150 
     29 H29       -11.0469   -8.5699   39.6843 H         1 UNK         0.1150 
     30 H30       -10.6513  -16.9328   38.1867 H         1 UNK         0.1150 
     31 H31       -10.2878  -13.0746   41.0753 H         1 UNK         0.1150 
     32 H32       -10.5563  -12.6215   38.0438 H         1 UNK         0.1150 
     33 H33        -9.5549  -19.2253   36.1218 H         1 UNK         0.0600 
     34 H34       -11.1673  -18.7753   36.6904 H         1 UNK         0.0600 
     35 H35       -10.7773  -18.6643   34.9745 H         1 UNK         0.0600 
     36 H36       -15.3652  -13.1053   36.2617 H         1 UNK         0.0300 
     37 H37       -14.9581  -12.9917   37.9691 H         1 UNK         0.0300 
     38 H38       -13.6794  -13.2233   36.7505 H         1 UNK         0.0300 
     39 H39       -11.7499   -5.2677   38.4615 H         1 UNK         0.0300 
     40 H40       -10.6001   -6.5914   38.5928 H         1 UNK         0.0300 
     41 H41       -11.9035   -6.4048   39.7940 H         1 UNK         0.0300 
     42 H42       -14.3448   -7.6598   34.6184 H         1 UNK         0.0300 
     43 H43       -12.7630   -7.7088   35.3831 H         1 UNK         0.0300 
     44 H44       -14.0605   -6.6878   36.0519 H         1 UNK         0.0300 
     45 H45       -10.0085  -15.0815   39.5844 H         1 UNK         0.3537 
     46 H46        -8.6436  -12.9902   37.6236 H         1 UNK         0.4350 
@<TRIPOS>BOND
     1    1    2 ar   
     2    1    7 ar   
     3    1   26 1    
     4    2    9 ar   
     5    2   27 1    
     6    3    6 ar   
     7    3   10 ar   
     8    3   28 1    
     9    4    6 ar   
    10    4   11 ar   
    11    4   29 1    
    12    5    7 ar   
    13    5    8 ar   
    14    5   30 1    
    15    6   15 1    
    16    7   16 1    
    17    8    9 ar   
    18    8   20 1    
    19    9   22 1    
    20   10   12 ar   
    21   10   23 1    
    22   11   12 ar   
    23   11   24 1    
    24   12   25 1    
    25   13   14 2    
    26   13   15 1    
    27   13   31 1    
    28   14   20 1    
    29   14   32 1    
    30   15   21 2    
    31   16   33 1    
    32   16   34 1    
    33   16   35 1    
    34   17   23 1    
    35   17   36 1    
    36   17   37 1    
    37   17   38 1    
    38   18   24 1    
    39   18   39 1    
    40   18   40 1    
    41   18   41 1    
    42   19   25 1    
    43   19   42 1    
    44   19   43 1    
    45   19   44 1    
    46   20   45 1    
    47   22   46 1    
@<TRIPOS>SUBSTRUCTURE
     1 UNK         1 GROUP             0       ****    0 ROOT    
@<TRIPOS>MOLECULE
ZINC00208454_138
46   47    1
SMALL
USER_CHARGES


@<TRIPOS>ATOM
      1 C1         -9.7591  -16.9968   36.2828 C.ar      1 UNK        -0.1150 
      2 C2        -10.0536  -16.3164   37.4808 C.ar      1 UNK        -0.1150 
      3 C3        -12.8199  -11.0941   38.5436 C.ar      1 UNK        -0.1150 
      4 C4        -11.7535   -8.9739   39.0619 C.ar      1 UNK        -0.1150 
      5 C5         -8.6584  -15.0006   35.4201 C.ar      1 UNK        -0.1150 
      6 C6        -11.8826  -10.3575   39.2972 C.ar      1 UNK        -0.1150 
      7 C7         -9.0648  -16.3393   35.2468 C.ar      1 UNK        -0.1150 
      8 C8         -9.6729  -14.9698   37.6502 C.ar      1 UNK         0.2000 
      9 C9        -13.5950  -10.4679   37.5400 C.ar      1 UNK         0.0850 
     10 C10       -12.5264   -8.3160   38.0730 C.ar      1 UNK         0.0850 
     11 C11        -8.9497  -14.3246   36.6194 C.ar      1 UNK         0.1500 
     12 C12       -13.4398   -9.0837   37.2936 C.ar      1 UNK         0.0850 
     13 C13       -10.5839  -12.3939   40.2032 C.2       1 UNK        -0.1150 
     14 C14       -10.4071  -13.0093   39.0175 C.2       1 UNK        -0.0970 
     15 C15       -11.0389  -10.9915   40.3536 C.2       1 UNK         0.5850 
     16 C16        -8.7497  -17.0680   33.9564 C.3       1 UNK        -0.0650 
     17 C17       -14.6295  -12.5508   36.9081 C.3       1 UNK         0.1100 
     18 C18       -11.5488   -6.1837   38.6556 C.3       1 UNK         0.1100 
     19 C19       -13.7448   -7.4980   35.5038 C.3       1 UNK         0.1100 
     20 N20        -9.9902  -14.3247   38.8565 N.pl3     1 UNK        -0.5717 
     21 O21       -10.6885  -10.3486   41.3414 O.2       1 UNK        -0.4700 
     22 O22        -8.4865  -13.0599   36.8108 O.3       1 UNK        -0.5850 
     23 O23       -14.5116  -11.1440   36.7595 O.3       1 UNK        -0.2850 
     24 O24       -12.4381   -6.9539   37.8595 O.3       1 UNK        -0.2850 
     25 O25       -14.2432   -8.5641   36.2974 O.3       1 UNK        -0.2850 
     26 H26       -10.0709  -18.0245   36.1625 H         1 UNK         0.1150 
     27 H27       -10.5926  -16.8335   38.2603 H         1 UNK         0.1150 
     28 H28       -12.9421  -12.1448   38.7540 H         1 UNK         0.1150 
     29 H29       -11.0465   -8.4292   39.6694 H         1 UNK         0.1150 
     30 H30        -8.1082  -14.4906   34.6428 H         1 UNK         0.1150 
     31 H31       -10.3695  -12.9185   41.1222 H         1 UNK         0.1150 
     32 H32       -10.5992  -12.4957   38.0833 H         1 UNK         0.1150 
     33 H33        -9.5446  -16.9058   33.2279 H         1 UNK         0.0600 
     34 H34        -7.8132  -16.7101   33.5272 H         1 UNK         0.0600 
     35 H35        -8.6521  -18.1407   34.1262 H         1 UNK         0.0600 
     36 H36       -15.3551  -12.9269   36.1872 H         1 UNK         0.0300 
     37 H37       -14.9863  -12.8177   37.9035 H         1 UNK         0.0300 
     38 H38       -13.6816  -13.0546   36.7137 H         1 UNK         0.0300 
     39 H39       -11.6160   -5.1378   38.3567 H         1 UNK         0.0300 
     40 H40       -10.5136   -6.4984   38.5170 H         1 UNK         0.0300 
     41 H41       -11.8084   -6.2398   39.7137 H         1 UNK         0.0300 
     42 H42       -14.2498   -7.5087   34.5383 H         1 UNK         0.0300 
     43 H43       -12.6743   -7.5897   35.3140 H         1 UNK         0.0300 
     44 H44       -13.9524   -6.5327   35.9657 H         1 UNK         0.0300 
     45 H45       -10.0696  -14.9402   39.6547 H         1 UNK         0.3537 
     46 H46        -8.6921  -12.8265   37.7069 H         1 UNK         0.4350 
@<TRIPOS>BOND
     1    1    2 ar   
     2    1    7 ar   
     3    1   26 1    
     4    2    8 ar   
     5    2   27 1    
     6    3    6 ar   
     7    3    9 ar   
     8    3   28 1    
     9    4    6 ar   
    10    4   10 ar   
    11    4   29 1    
    12    5    7 ar   
    13    5   11 ar   
    14    5   30 1    
    15    6   15 1    
    16    7   16 1    
    17    8   11 ar   
    18    8   20 1    
    19    9   12 ar   
    20    9   23 1    
    21   10   12 ar   
    22   10   24 1    
    23   11   22 1    
    24   12   25 1    
    25   13   14 2    
    26   13   15 1    
    27   13   31 1    
    28   14   20 1    
    29   14   32 1    
    30   15   21 2    
    31   16   33 1    
    32   16   34 1    
    33   16   35 1    
    34   17   23 1    
    35   17   36 1    
    36   17   37 1    
    37   17   38 1    
    38   18   24 1    
    39   18   39 1    
    40   18   40 1    
    41   18   41 1    
    42   19   25 1    
    43   19   42 1    
    44   19   43 1    
    45   19   44 1    
    46   20   45 1    
    47   22   46 1    
@<TRIPOS>SUBSTRUCTURE
     1 UNK         1 GROUP             0       ****    0 ROOT    
@<TRIPOS>MOLECULE
ZINC00239810_41
44   45    1
SMALL
USER_CHARGES


@<TRIPOS>ATOM
      1 C1         -7.8978   -5.8741   38.6318 C.ar      1 UNK        -0.1150 
      2 C2         -6.7741   -3.9295   39.5772 C.ar      1 UNK        -0.1150 
      3 C3         -7.0341   -5.3143   39.5977 C.ar      1 UNK        -0.1150 
      4 C4         -8.4536   -5.0716   37.6073 C.ar      1 UNK         0.0850 
      5 C5         -7.3273   -3.1050   38.5688 C.ar      1 UNK         0.0850 
      6 C6         -8.1535   -3.6894   37.5831 C.ar      1 UNK         0.0850 
      7 C7         -6.4476   -6.1567   40.6949 C.2       1 UNK         0.6150 
      8 C8         -5.8519   -9.6165   41.0777 C.3       1 UNK        -0.1200 
      9 C9         -5.5037  -10.0682   39.6470 C.3       1 UNK        -0.1200 
     10 C10        -5.2708   -8.2230   41.3792 C.3       1 UNK        -0.0500 
     11 C11        -5.2722   -7.6336   39.0166 C.3       1 UNK        -0.0500 
     12 C12        -5.8720   -8.9955   38.5974 C.3       1 UNK         0.0286 
     13 C13        -9.5640   -6.9521   36.5942 C.3       1 UNK         0.1100 
     14 C14        -6.3223   -1.1243   39.4894 C.3       1 UNK         0.1100 
     15 C15        -8.0018   -2.9697   35.3721 C.3       1 UNK         0.1100 
     16 C16        -5.4496   -9.4015   37.1708 C.3       1 UNK         0.5114 
     17 N17        -5.7425   -7.2699   40.3641 N.am      1 UNK        -0.1400 
     18 O18        -6.6217   -5.8015   41.8593 O.2       1 UNK        -0.5000 
     19 O19        -9.2862   -5.5605   36.6214 O.3       1 UNK        -0.2850 
     20 O20        -7.0985   -1.7475   38.4775 O.3       1 UNK        -0.2850 
     21 O21        -8.6891   -2.8867   36.6089 O.3       1 UNK        -0.2850 
     22 F22        -6.0190  -10.5606   36.8430 F         1 UNK        -0.2000 
     23 F23        -5.8532   -8.4746   36.3027 F         1 UNK        -0.2000 
     24 F24        -4.1252   -9.5268   37.0905 F         1 UNK        -0.2000 
     25 H25        -8.1268   -6.9250   38.6983 H         1 UNK         0.1150 
     26 H26        -6.1413   -3.5219   40.3514 H         1 UNK         0.1150 
     27 H27        -6.9358   -9.5923   41.2021 H         1 UNK         0.0600 
     28 H28        -5.4776  -10.3426   41.8007 H         1 UNK         0.0600 
     29 H29        -4.4348  -10.2787   39.5879 H         1 UNK         0.0600 
     30 H30        -6.0105  -11.0070   39.4205 H         1 UNK         0.0600 
     31 H31        -5.5497   -7.9307   42.3934 H         1 UNK         0.0600 
     32 H32        -4.1802   -8.2532   41.3695 H         1 UNK         0.0600 
     33 H33        -4.1836   -7.7018   39.0339 H         1 UNK         0.0600 
     34 H34        -5.4865   -6.8745   38.2656 H         1 UNK         0.0600 
     35 H35        -6.9581   -8.9030   38.5909 H         1 UNK         0.0600 
     36 H36       -10.2043   -7.1728   35.7400 H         1 UNK         0.0300 
     37 H37       -10.0938   -7.2699   37.4929 H         1 UNK         0.0300 
     38 H38        -8.6520   -7.5400   36.4819 H         1 UNK         0.0300 
     39 H39        -6.2674   -0.0542   39.2908 H         1 UNK         0.0300 
     40 H40        -5.3020   -1.5096   39.5031 H         1 UNK         0.0300 
     41 H41        -6.7726   -1.2532   40.4747 H         1 UNK         0.0300 
     42 H42        -8.4429   -2.2689   34.6636 H         1 UNK         0.0300 
     43 H43        -8.0665   -3.9684   34.9390 H         1 UNK         0.0300 
     44 H44        -6.9492   -2.7082   35.4908 H         1 UNK         0.0300 
@<TRIPOS>BOND
     1    1    3 ar   
     2    1    4 ar   
     3    1   25 1    
     4    2    3 ar   
     5    2    5 ar   
     6    2   26 1    
     7    3    7 1    
     8    4    6 ar   
     9    4   19 1    
    10    5    6 ar   
    11    5   20 1    
    12    6   21 1    
    13    7   17 am   BACKBONE|DICT|INTERRES
    14    7   18 2    
    15    8    9 1    
    16    8   10 1    
    17    8   27 1    
    18    8   28 1    
    19    9   12 1    
    20    9   29 1    
    21    9   30 1    
    22   10   17 1    
    23   10   31 1    
    24   10   32 1    
    25   11   12 1    
    26   11   17 1    
    27   11   33 1    
    28   11   34 1    
    29   12   16 1    
    30   12   35 1    
    31   13   19 1    
    32   13   36 1    
    33   13   37 1    
    34   13   38 1    
    35   14   20 1    
    36   14   39 1    
    37   14   40 1    
    38   14   41 1    
    39   15   21 1    
    40   15   42 1    
    41   15   43 1    
    42   15   44 1    
    43   16   22 1    
    44   16   23 1    
    45   16   24 1    
@<TRIPOS>SUBSTRUCTURE
     1 UNK         1 GROUP             0       ****    0 ROOT    
@<TRIPOS>MOLECULE
ZINC00261973_2
41   42    1
SMALL
USER_CHARGES


@<TRIPOS>ATOM
      1 C1         -8.6477  -11.7822   40.7800 C.ar      1 UNK        -0.1150 
      2 C2         -7.6806  -12.5904   40.1569 C.ar      1 UNK        -0.1150 
      3 C3         -9.7957   -8.1916   38.4371 C.ar      1 UNK        -0.1150 
      4 C4         -8.7501   -6.1634   39.2906 C.ar      1 UNK        -0.1150 
      5 C5         -6.6669  -10.6125   39.1810 C.ar      1 UNK        -0.1150 
      6 C6         -8.7077   -7.5582   39.0788 C.ar      1 UNK        -0.1150 
      7 C7         -7.6414   -9.7858   39.7856 C.ar      1 UNK        -0.1150 
      8 C8         -8.6473  -10.3747   40.6128 C.ar      1 UNK         0.2000 
      9 C9        -10.9326   -7.4505   38.0376 C.ar      1 UNK         0.0850 
     10 C10        -9.8729   -5.3999   38.8904 C.ar      1 UNK         0.0850 
     11 C11       -10.9576   -6.0566   38.2629 C.ar      1 UNK         0.0850 
     12 C12        -6.6865  -12.0046   39.3593 C.ar      1 UNK         0.1800 
     13 C13        -7.5019   -8.3220   39.5179 C.2       1 UNK         0.7000 
     14 C14       -10.7505  -10.2027   41.9578 C.3       1 UNK         0.0200 
     15 C15       -12.0789   -9.4208   37.2680 C.3       1 UNK         0.1100 
     16 C16        -8.8921   -3.3529   39.6925 C.3       1 UNK         0.1100 
     17 C17       -11.8872   -4.6002   36.6936 C.3       1 UNK         0.1100 
     18 N18        -9.6169   -9.5948   41.2732 N.pl3     1 UNK        -0.7800 
     19 O19        -6.4079   -7.7650   39.6242 O.2       1 UNK        -0.4700 
     20 O20       -12.0333   -8.0103   37.4223 O.3       1 UNK        -0.2850 
     21 O21        -9.9789   -4.0382   39.0884 O.3       1 UNK        -0.2850 
     22 O22       -12.0699   -5.3496   37.8832 O.3       1 UNK        -0.2850 
     23 Cl23       -5.4942  -12.9906   38.5993 Cl        1 UNK        -0.1800 
     24 H24        -9.3819  -12.2743   41.3992 H         1 UNK         0.1150 
     25 H25        -7.6958  -13.6608   40.2992 H         1 UNK         0.1150 
     26 H26        -9.7487   -9.2554   38.2625 H         1 UNK         0.1150 
     27 H27        -7.9047   -5.6952   39.7729 H         1 UNK         0.1150 
     28 H28        -5.8902  -10.1758   38.5686 H         1 UNK         0.1150 
     29 H29       -11.4421   -9.4292   42.2946 H         1 UNK         0.0600 
     30 H30       -10.4242  -10.7622   42.8359 H         1 UNK         0.0600 
     31 H31       -11.2995  -10.8728   41.2944 H         1 UNK         0.0600 
     32 H32       -13.0293   -9.7014   36.8142 H         1 UNK         0.0300 
     33 H33       -12.0099   -9.9304   38.2303 H         1 UNK         0.0300 
     34 H34       -11.2836   -9.7759   36.6115 H         1 UNK         0.0300 
     35 H35        -9.1313   -2.2919   39.7619 H         1 UNK         0.0300 
     36 H36        -7.9817   -3.4469   39.0988 H         1 UNK         0.0300 
     37 H37        -8.7044   -3.7143   40.7045 H         1 UNK         0.0300 
     38 H38       -12.8320   -4.1393   36.4064 H         1 UNK         0.0300 
     39 H39       -11.5648   -5.2414   35.8718 H         1 UNK         0.0300 
     40 H40       -11.1541   -3.8035   36.8224 H         1 UNK         0.0300 
     41 H41        -9.6658   -8.5942   41.1214 H         1 UNK         0.3800 
@<TRIPOS>BOND
     1    1    2 ar   
     2    1    8 ar   
     3    1   24 1    
     4    2   12 ar   
     5    2   25 1    
     6    3    6 ar   
     7    3    9 ar   
     8    3   26 1    
     9    4    6 ar   
    10    4   10 ar   
    11    4   27 1    
    12    5    7 ar   
    13    5   12 ar   
    14    5   28 1    
    15    6   13 1    
    16    7    8 ar   
    17    7   13 1    
    18    8   18 1    
    19    9   11 ar   
    20    9   20 1    
    21   10   11 ar   
    22   10   21 1    
    23   11   22 1    
    24   12   23 1    
    25   13   19 2    
    26   14   18 1    
    27   14   29 1    
    28   14   30 1    
    29   14   31 1    
    30   15   20 1    
    31   15   32 1    
    32   15   33 1    
    33   15   34 1    
    34   16   21 1    
    35   16   35 1    
    36   16   36 1    
    37   16   37 1    
    38   17   22 1    
    39   17   38 1    
    40   17   39 1    
    41   17   40 1    
    42   18   41 1    
@<TRIPOS>SUBSTRUCTURE
     1 UNK         1 GROUP             0       ****    0 ROOT    
@<TRIPOS>MOLECULE
ZINC00282631_2
42   44    1
SMALL
USER_CHARGES


@<TRIPOS>ATOM
      1 C1         -4.4626   -9.7674   37.0694 C.ar      1 UNK        -0.1490 
      2 C2         -4.8689   -8.4582   36.7434 C.ar      1 UNK        -0.1817 
      3 C3         -4.5169  -10.2141   38.4056 C.ar      1 UNK        -0.3696 
      4 C4         -5.3407   -7.5927   37.7500 C.ar      1 UNK        -0.3290 
      5 C5         -6.7151   -3.9722   39.5196 C.ar      1 UNK        -0.1150 
      6 C6         -7.9157   -5.9133   38.6618 C.ar      1 UNK        -0.1150 
      7 C7         -6.9980   -5.3518   39.5744 C.ar      1 UNK        -0.1150 
      8 C8         -4.9828   -9.3636   39.4289 C.ar      1 UNK         0.4982 
      9 C9         -5.4109   -8.0494   39.0856 C.ar      1 UNK         0.2299 
     10 C10        -7.3079   -3.1540   38.5287 C.ar      1 UNK         0.0850 
     11 C11        -8.5100   -5.1169   37.6546 C.ar      1 UNK         0.0850 
     12 C12        -8.1945   -3.7400   37.5976 C.ar      1 UNK         0.0850 
     13 C13        -5.5906   -8.4517   41.2479 C.ar      1 UNK         0.3638 
     14 C14        -6.3776   -6.1961   40.6469 C.2       1 UNK         0.7375 
     15 C15        -5.8820   -8.3478   42.7192 C.3       1 UNK        -0.0650 
     16 C16        -6.2472   -1.1706   39.3792 C.3       1 UNK         0.1100 
     17 C17        -9.6924   -6.9946   36.7237 C.3       1 UNK         0.1100 
     18 C18        -8.0640   -2.9552   35.4124 C.3       1 UNK         0.1100 
     19 N19        -5.0997   -9.5998   40.7796 N.2       1 UNK        -0.6787 
     20 N20        -5.8168   -7.4879   40.2996 N.pl3     1 UNK        -0.3410 
     21 O21        -6.2930   -5.7659   41.7967 O.2       1 UNK        -0.5000 
     22 O22        -7.0637   -1.8020   38.4047 O.3       1 UNK        -0.2850 
     23 O23        -9.3873   -5.6080   36.7098 O.3       1 UNK        -0.2850 
     24 O24        -8.7735   -2.9507   36.6386 O.3       1 UNK        -0.2850 
     25 H25        -4.0990  -10.4291   36.2946 H         1 UNK         0.1514 
     26 H26        -4.8119   -8.1175   35.7175 H         1 UNK         0.1607 
     27 H27        -4.1970  -11.2118   38.6644 H         1 UNK         0.2091 
     28 H28        -5.6309   -6.5873   37.4857 H         1 UNK         0.1984 
     29 H29        -6.0337   -3.5635   40.2512 H         1 UNK         0.1150 
     30 H30        -8.1419   -6.9656   38.7443 H         1 UNK         0.1150 
     31 H31        -5.2121   -7.6292   43.1920 H         1 UNK         0.0600 
     32 H32        -6.9163   -8.0501   42.8915 H         1 UNK         0.0600 
     33 H33        -5.7295   -9.3122   43.2052 H         1 UNK         0.0600 
     34 H34        -6.1940   -0.1031   39.1657 H         1 UNK         0.0300 
     35 H35        -5.2292   -1.5614   39.3603 H         1 UNK         0.0300 
     36 H36        -6.6613   -1.2853   40.3818 H         1 UNK         0.0300 
     37 H37       -10.3788   -7.2190   35.9073 H         1 UNK         0.0300 
     38 H38       -10.1821   -7.2859   37.6538 H         1 UNK         0.0300 
     39 H39        -8.7982   -7.6026   36.5785 H         1 UNK         0.0300 
     40 H40        -8.5526   -2.2848   34.7058 H         1 UNK         0.0300 
     41 H41        -8.0411   -3.9518   34.9697 H         1 UNK         0.0300 
     42 H42        -7.0383   -2.6094   35.5495 H         1 UNK         0.0300 
@<TRIPOS>BOND
     1    1    2 ar   
     2    1    3 ar   
     3    1   25 1    
     4    2    4 ar   
     5    2   26 1    
     6    3    8 ar   
     7    3   27 1    
     8    4    9 ar   
     9    4   28 1    
    10    5    7 ar   
    11    5   10 ar   
    12    5   29 1    
    13    6    7 ar   
    14    6   11 ar   
    15    6   30 1    
    16    7   14 1    
    17    8    9 ar   
    18    8   19 ar   
    19    9   20 ar   
    20   10   12 ar   
    21   10   22 1    
    22   11   12 ar   
    23   11   23 1    
    24   12   24 1    
    25   13   15 1    
    26   13   19 ar   
    27   13   20 ar   
    28   14   20 1    
    29   14   21 2    
    30   15   31 1    
    31   15   32 1    
    32   15   33 1    
    33   16   22 1    
    34   16   34 1    
    35   16   35 1    
    36   16   36 1    
    37   17   23 1    
    38   17   37 1    
    39   17   38 1    
    40   17   39 1    
    41   18   24 1    
    42   18   40 1    
    43   18   41 1    
    44   18   42 1    
@<TRIPOS>SUBSTRUCTURE
     1 UNK         1 GROUP             0       ****    0 ROOT    
@<TRIPOS>MOLECULE
ZINC00282631_2
42   44    1
SMALL
USER_CHARGES


@<TRIPOS>ATOM
      1 C1         -4.4626   -9.7674   37.0694 C.ar      1 UNK        -0.1490 
      2 C2         -4.8689   -8.4582   36.7434 C.ar      1 UNK        -0.1817 
      3 C3         -4.5169  -10.2141   38.4056 C.ar      1 UNK        -0.3696 
      4 C4         -5.3407   -7.5927   37.7500 C.ar      1 UNK        -0.3290 
      5 C5         -6.7151   -3.9722   39.5196 C.ar      1 UNK        -0.1150 
      6 C6         -7.9157   -5.9133   38.6618 C.ar      1 UNK        -0.1150 
      7 C7         -6.9980   -5.3518   39.5744 C.ar      1 UNK        -0.1150 
      8 C8         -4.9828   -9.3636   39.4289 C.ar      1 UNK         0.4982 
      9 C9         -5.4109   -8.0494   39.0856 C.ar      1 UNK         0.2299 
     10 C10        -7.3079   -3.1540   38.5287 C.ar      1 UNK         0.0850 
     11 C11        -8.5100   -5.1169   37.6546 C.ar      1 UNK         0.0850 
     12 C12        -8.1945   -3.7400   37.5976 C.ar      1 UNK         0.0850 
     13 C13        -5.5906   -8.4517   41.2479 C.ar      1 UNK         0.3638 
     14 C14        -6.3776   -6.1961   40.6469 C.2       1 UNK         0.7375 
     15 C15        -5.8820   -8.3478   42.7192 C.3       1 UNK        -0.0650 
     16 C16        -6.2472   -1.1706   39.3792 C.3       1 UNK         0.1100 
     17 C17        -9.6924   -6.9946   36.7237 C.3       1 UNK         0.1100 
     18 C18        -8.0640   -2.9552   35.4124 C.3       1 UNK         0.1100 
     19 N19        -5.0997   -9.5998   40.7796 N.2       1 UNK        -0.6787 
     20 N20        -5.8168   -7.4879   40.2996 N.pl3     1 UNK        -0.3410 
     21 O21        -6.2930   -5.7659   41.7967 O.2       1 UNK        -0.5000 
     22 O22        -7.0637   -1.8020   38.4047 O.3       1 UNK        -0.2850 
     23 O23        -9.3873   -5.6080   36.7098 O.3       1 UNK        -0.2850 
     24 O24        -8.7735   -2.9507   36.6386 O.3       1 UNK        -0.2850 
     25 H25        -4.0990  -10.4291   36.2946 H         1 UNK         0.1514 
     26 H26        -4.8119   -8.1175   35.7175 H         1 UNK         0.1607 
     27 H27        -4.1970  -11.2118   38.6644 H         1 UNK         0.2091 
     28 H28        -5.6309   -6.5873   37.4857 H         1 UNK         0.1984 
     29 H29        -6.0337   -3.5635   40.2512 H         1 UNK         0.1150 
     30 H30        -8.1419   -6.9656   38.7443 H         1 UNK         0.1150 
     31 H31        -5.2121   -7.6292   43.1920 H         1 UNK         0.0600 
     32 H32        -6.9163   -8.0501   42.8915 H         1 UNK         0.0600 
     33 H33        -5.7295   -9.3122   43.2052 H         1 UNK         0.0600 
     34 H34        -6.1940   -0.1031   39.1657 H         1 UNK         0.0300 
     35 H35        -5.2292   -1.5614   39.3603 H         1 UNK         0.0300 
     36 H36        -6.6613   -1.2853   40.3818 H         1 UNK         0.0300 
     37 H37       -10.3788   -7.2190   35.9073 H         1 UNK         0.0300 
     38 H38       -10.1821   -7.2859   37.6538 H         1 UNK         0.0300 
     39 H39        -8.7982   -7.6026   36.5785 H         1 UNK         0.0300 
     40 H40        -8.5526   -2.2848   34.7058 H         1 UNK         0.0300 
     41 H41        -8.0411   -3.9518   34.9697 H         1 UNK         0.0300 
     42 H42        -7.0383   -2.6094   35.5495 H         1 UNK         0.0300 
@<TRIPOS>BOND
     1    1    2 ar   
     2    1    3 ar   
     3    1   25 1    
     4    2    4 ar   
     5    2   26 1    
     6    3    8 ar   
     7    3   27 1    
     8    4    9 ar   
     9    4   28 1    
    10    5    7 ar   
    11    5   10 ar   
    12    5   29 1    
    13    6    7 ar   
    14    6   11 ar   
    15    6   30 1    
    16    7   14 1    
    17    8    9 ar   
    18    8   19 ar   
    19    9   20 ar   
    20   10   12 ar   
    21   10   22 1    
    22   11   12 ar   
    23   11   23 1    
    24   12   24 1    
    25   13   15 1    
    26   13   19 ar   
    27   13   20 ar   
    28   14   20 1    
    29   14   21 2    
    30   15   31 1    
    31   15   32 1    
    32   15   33 1    
    33   16   22 1    
    34   16   34 1    
    35   16   35 1    
    36   16   36 1    
    37   17   23 1    
    38   17   37 1    
    39   17   38 1    
    40   17   39 1    
    41   18   24 1    
    42   18   40 1    
    43   18   41 1    
    44   18   42 1    
@<TRIPOS>SUBSTRUCTURE
     1 UNK         1 GROUP             0       ****    0 ROOT    
@<TRIPOS>MOLECULE
ZINC00284602_15
45   47    1
SMALL
USER_CHARGES


@<TRIPOS>ATOM
      1 C1         -4.1558   -9.3018   36.9531 C.ar      1 UNK        -0.1150 
      2 C2         -4.5874   -7.9666   36.7878 C.ar      1 UNK        -0.1150 
      3 C3         -4.3149   -9.9510   38.1945 C.ar      1 UNK        -0.1150 
      4 C4         -5.1951   -7.2694   37.8546 C.ar      1 UNK        -0.1150 
      5 C5         -6.6905   -4.0356   39.4368 C.ar      1 UNK        -0.1150 
      6 C6         -7.9868   -5.9446   38.6472 C.ar      1 UNK        -0.1150 
      7 C7         -7.0287   -5.4009   39.5304 C.ar      1 UNK        -0.1150 
      8 C8         -4.9264   -9.2425   39.2431 C.ar      1 UNK        -0.1150 
      9 C9         -5.3860   -7.9381   39.0871 C.ar      1 UNK        -0.0383 
     10 C10        -7.2654   -3.2164   38.4359 C.ar      1 UNK         0.0850 
     11 C11        -8.5660   -5.1467   37.6325 C.ar      1 UNK         0.0850 
     12 C12        -8.1931   -3.7872   37.5348 C.ar      1 UNK         0.0850 
     13 C13        -6.4251   -6.2451   40.6163 C.2       1 UNK         0.6150 
     14 C14        -5.1379   -9.7343   40.6427 C.3       1 UNK        -0.0050 
     15 C15        -5.7745   -8.5176   41.3582 C.3       1 UNK         0.0100 
     16 C16        -7.0993   -8.9002   42.0510 C.3       1 UNK        -0.1800 
     17 C17        -6.1032   -1.2636   39.2204 C.3       1 UNK         0.1100 
     18 C18        -9.8493   -6.9893   36.7709 C.3       1 UNK         0.1100 
     19 C19        -7.9798   -2.9427   35.3793 C.3       1 UNK         0.1100 
     20 N20        -5.9460   -7.4810   40.3156 N.am      1 UNK        -0.0317 
     21 O21        -6.3621   -5.7773   41.7544 O.2       1 UNK        -0.5000 
     22 O22        -6.9689   -1.8781   38.2782 O.3       1 UNK        -0.2850 
     23 O23        -9.4787   -5.6204   36.7127 O.3       1 UNK        -0.2850 
     24 O24        -8.7596   -3.0076   36.5603 O.3       1 UNK        -0.2850 
     25 H25        -3.6873   -9.8219   36.1301 H         1 UNK         0.1150 
     26 H26        -4.4431   -7.4708   35.8386 H         1 UNK         0.1150 
     27 H27        -3.9659  -10.9634   38.3371 H         1 UNK         0.1150 
     28 H28        -5.4839   -6.2424   37.6961 H         1 UNK         0.1150 
     29 H29        -5.9809   -3.6400   40.1480 H         1 UNK         0.1150 
     30 H30        -8.2512   -6.9853   38.7572 H         1 UNK         0.1150 
     31 H31        -5.7927  -10.6067   40.6307 H         1 UNK         0.0600 
     32 H32        -4.1877  -10.0196   41.0957 H         1 UNK         0.0600 
     33 H33        -5.0727   -8.1353   42.1023 H         1 UNK         0.0600 
     34 H34        -7.8437   -9.2358   41.3281 H         1 UNK         0.0600 
     35 H35        -7.5246   -8.0618   42.6038 H         1 UNK         0.0600 
     36 H36        -6.9434   -9.7072   42.7671 H         1 UNK         0.0600 
     37 H37        -6.0040   -0.2051   38.9802 H         1 UNK         0.0300 
     38 H38        -5.1053   -1.7030   39.1902 H         1 UNK         0.0300 
     39 H39        -6.5009   -1.3351   40.2338 H         1 UNK         0.0300 
     40 H40       -10.5618   -7.2017   35.9741 H         1 UNK         0.0300 
     41 H41       -10.3327   -7.2316   37.7181 H         1 UNK         0.0300 
     42 H42        -8.9879   -7.6426   36.6254 H         1 UNK         0.0300 
     43 H43        -8.4930   -2.3330   34.6360 H         1 UNK         0.0300 
     44 H44        -7.8281   -3.9353   34.9526 H         1 UNK         0.0300 
     45 H45        -7.0053   -2.4910   35.5698 H         1 UNK         0.0300 
@<TRIPOS>BOND
     1    1    2 ar   
     2    1    3 ar   
     3    1   25 1    
     4    2    4 ar   
     5    2   26 1    
     6    3    8 ar   
     7    3   27 1    
     8    4    9 ar   
     9    4   28 1    
    10    5    7 ar   
    11    5   10 ar   
    12    5   29 1    
    13    6    7 ar   
    14    6   11 ar   
    15    6   30 1    
    16    7   13 1    
    17    8    9 ar   
    18    8   14 1    
    19    9   20 1    
    20   10   12 ar   
    21   10   22 1    
    22   11   12 ar   
    23   11   23 1    
    24   12   24 1    
    25   13   20 am   BACKBONE|DICT|INTERRES
    26   13   21 2    
    27   14   15 1    
    28   14   31 1    
    29   14   32 1    
    30   15   16 1    
    31   15   20 1    
    32   15   33 1    
    33   16   34 1    
    34   16   35 1    
    35   16   36 1    
    36   17   22 1    
    37   17   37 1    
    38   17   38 1    
    39   17   39 1    
    40   18   23 1    
    41   18   40 1    
    42   18   41 1    
    43   18   42 1    
    44   19   24 1    
    45   19   43 1    
    46   19   44 1    
    47   19   45 1    
@<TRIPOS>SUBSTRUCTURE
     1 UNK         1 GROUP             0       ****    0 ROOT    
@<TRIPOS>MOLECULE
ZINC00284603_17
45   47    1
SMALL
USER_CHARGES


@<TRIPOS>ATOM
      1 C1         -4.5615   -9.3976   36.8408 C.ar      1 UNK        -0.1150 
      2 C2         -4.7434   -7.9988   36.7451 C.ar      1 UNK        -0.1150 
      3 C3         -4.7699  -10.0612   38.0684 C.ar      1 UNK        -0.1150 
      4 C4         -5.1504   -7.2483   37.8697 C.ar      1 UNK        -0.1150 
      5 C5         -6.6941   -4.0188   39.5278 C.ar      1 UNK        -0.1150 
      6 C6         -7.8864   -5.9419   38.6210 C.ar      1 UNK        -0.1150 
      7 C7         -6.9873   -5.3970   39.5632 C.ar      1 UNK        -0.1150 
      8 C8         -5.1803   -9.2981   39.1748 C.ar      1 UNK        -0.1150 
      9 C9         -5.3978   -7.9272   39.0845 C.ar      1 UNK        -0.0383 
     10 C10        -7.2496   -3.1882   38.5256 C.ar      1 UNK         0.0850 
     11 C11        -8.4436   -5.1333   37.6022 C.ar      1 UNK         0.0850 
     12 C12        -8.1103   -3.7592   37.5617 C.ar      1 UNK         0.0850 
     13 C13        -6.4092   -6.2489   40.6580 C.2       1 UNK         0.6150 
     14 C14        -5.3950   -9.7893   40.5761 C.3       1 UNK        -0.0050 
     15 C15        -5.6163   -8.4798   41.3748 C.3       1 UNK         0.0100 
     16 C16        -4.4257   -8.1815   42.3087 C.3       1 UNK        -0.1800 
     17 C17        -6.2069   -1.2191   39.4288 C.3       1 UNK         0.1100 
     18 C18        -9.6268   -6.9929   36.6373 C.3       1 UNK         0.1100 
     19 C19        -7.9803   -3.0534   35.3453 C.3       1 UNK         0.1100 
     20 N20        -5.7970   -7.4256   40.3543 N.am      1 UNK        -0.0317 
     21 O21        -6.5184   -5.8459   41.8168 O.2       1 UNK        -0.5000 
     22 O22        -6.9913   -1.8371   38.4200 O.3       1 UNK        -0.2850 
     23 O23        -9.3057   -5.6099   36.6357 O.3       1 UNK        -0.2850 
     24 O24        -8.6458   -2.9507   36.5923 O.3       1 UNK        -0.2850 
     25 H25        -4.2432   -9.9589   35.9740 H         1 UNK         0.1150 
     26 H26        -4.5610   -7.4976   35.8053 H         1 UNK         0.1150 
     27 H27        -4.6058  -11.1256   38.1562 H         1 UNK         0.1150 
     28 H28        -5.2561   -6.1775   37.7776 H         1 UNK         0.1150 
     29 H29        -6.0348   -3.6215   40.2849 H         1 UNK         0.1150 
     30 H30        -8.1245   -6.9923   38.6914 H         1 UNK         0.1150 
     31 H31        -6.2781  -10.4284   40.6053 H         1 UNK         0.0600 
     32 H32        -4.5378  -10.3658   40.9264 H         1 UNK         0.0600 
     33 H33        -6.5229   -8.5734   41.9761 H         1 UNK         0.0600 
     34 H34        -3.5002   -8.0597   41.7445 H         1 UNK         0.0600 
     35 H35        -4.2763   -8.9916   43.0227 H         1 UNK         0.0600 
     36 H36        -4.5844   -7.2699   42.8855 H         1 UNK         0.0600 
     37 H37        -6.1306   -0.1520   39.2201 H         1 UNK         0.0300 
     38 H38        -5.1941   -1.6231   39.4509 H         1 UNK         0.0300 
     39 H39        -6.6638   -1.3304   40.4132 H         1 UNK         0.0300 
     40 H40       -10.2956   -7.2066   35.8036 H         1 UNK         0.0300 
     41 H41       -10.1422   -7.2808   37.5545 H         1 UNK         0.0300 
     42 H42        -8.7360   -7.6102   36.5118 H         1 UNK         0.0300 
     43 H43        -8.4110   -2.3392   34.6441 H         1 UNK         0.0300 
     44 H44        -8.0822   -4.0496   34.9137 H         1 UNK         0.0300 
     45 H45        -6.9185   -2.8239   35.4477 H         1 UNK         0.0300 
@<TRIPOS>BOND
     1    1    2 ar   
     2    1    3 ar   
     3    1   25 1    
     4    2    4 ar   
     5    2   26 1    
     6    3    8 ar   
     7    3   27 1    
     8    4    9 ar   
     9    4   28 1    
    10    5    7 ar   
    11    5   10 ar   
    12    5   29 1    
    13    6    7 ar   
    14    6   11 ar   
    15    6   30 1    
    16    7   13 1    
    17    8    9 ar   
    18    8   14 1    
    19    9   20 1    
    20   10   12 ar   
    21   10   22 1    
    22   11   12 ar   
    23   11   23 1    
    24   12   24 1    
    25   13   20 am   BACKBONE|DICT|INTERRES
    26   13   21 2    
    27   14   15 1    
    28   14   31 1    
    29   14   32 1    
    30   15   16 1    
    31   15   20 1    
    32   15   33 1    
    33   16   34 1    
    34   16   35 1    
    35   16   36 1    
    36   17   22 1    
    37   17   37 1    
    38   17   38 1    
    39   17   39 1    
    40   18   23 1    
    41   18   40 1    
    42   18   41 1    
    43   18   42 1    
    44   19   24 1    
    45   19   43 1    
    46   19   44 1    
    47   19   45 1    
@<TRIPOS>SUBSTRUCTURE
     1 UNK         1 GROUP             0       ****    0 ROOT    
@<TRIPOS>MOLECULE
ZINC00301709_127
43   44    1
SMALL
USER_CHARGES


@<TRIPOS>ATOM
      1 C1         -9.9165  -16.8414   36.1475 C.ar      1 UNK        -0.1150 
      2 C2         -9.2163  -16.1645   35.1302 C.ar      1 UNK        -0.1150 
      3 C3        -10.2065  -16.1868   37.3612 C.ar      1 UNK        -0.1150 
      4 C4         -8.7935  -14.8372   35.3338 C.ar      1 UNK        -0.1150 
      5 C5        -12.9239  -10.9563   38.6303 C.ar      1 UNK        -0.1150 
      6 C6        -11.7962   -8.8601   39.1147 C.ar      1 UNK        -0.1150 
      7 C7        -11.9409  -10.2426   39.3462 C.ar      1 UNK        -0.1150 
      8 C8         -9.8129  -14.8479   37.5623 C.ar      1 UNK         0.2000 
      9 C9         -9.0807  -14.1862   36.5477 C.ar      1 UNK         0.1500 
     10 C10       -13.7333  -10.3074   37.6691 C.ar      1 UNK         0.0850 
     11 C11       -12.5999   -8.1799   38.1661 C.ar      1 UNK         0.0850 
     12 C12       -13.5636   -8.9243   37.4242 C.ar      1 UNK         0.0850 
     13 C13       -10.6416  -12.3085   40.1773 C.2       1 UNK        -0.1150 
     14 C14       -10.5122  -12.9078   38.9773 C.2       1 UNK        -0.0970 
     15 C15       -11.0641  -10.9003   40.3602 C.2       1 UNK         0.5850 
     16 C16       -14.8627  -12.3596   37.1002 C.3       1 UNK         0.1100 
     17 C17       -11.5370   -6.0758   38.7032 C.3       1 UNK         0.1100 
     18 C18       -13.9555   -7.2850   35.6939 C.3       1 UNK         0.1100 
     19 N19       -10.1259  -14.2278   38.7828 N.pl3     1 UNK        -0.5717 
     20 O20       -10.6591  -10.2727   41.3369 O.2       1 UNK        -0.4700 
     21 O21        -8.6045  -12.9314   36.7684 O.3       1 UNK        -0.5850 
     22 O22       -14.6993  -10.9599   36.9292 O.3       1 UNK        -0.2850 
     23 O23       -12.4928   -6.8181   37.9596 O.3       1 UNK        -0.2850 
     24 O24       -14.4039   -8.3871   36.4678 O.3       1 UNK        -0.2850 
     25 H25       -10.2329  -17.8633   35.9956 H         1 UNK         0.1150 
     26 H26        -8.9921  -16.6647   34.1990 H         1 UNK         0.1150 
     27 H27       -10.7515  -16.7168   38.1280 H         1 UNK         0.1150 
     28 H28        -8.2344  -14.3214   34.5666 H         1 UNK         0.1150 
     29 H29       -13.0543  -12.0068   38.8375 H         1 UNK         0.1150 
     30 H30       -11.0525   -8.3337   39.6939 H         1 UNK         0.1150 
     31 H31       -10.4101  -12.8509   41.0818 H         1 UNK         0.1150 
     32 H32       -10.7221  -12.3755   38.0572 H         1 UNK         0.1150 
     33 H33       -15.6394  -12.7144   36.4230 H         1 UNK         0.0300 
     34 H34       -15.1763  -12.6029   38.1162 H         1 UNK         0.0300 
     35 H35       -13.9459  -12.9010   36.8621 H         1 UNK         0.0300 
     36 H36       -11.5932   -5.0270   38.4120 H         1 UNK         0.0300 
     37 H37       -10.5210   -6.4182   38.5013 H         1 UNK         0.0300 
     38 H38       -11.7344   -6.1291   39.7747 H         1 UNK         0.0300 
     39 H39       -14.5067   -7.2633   34.7541 H         1 UNK         0.0300 
     40 H40       -12.8946   -7.3570   35.4494 H         1 UNK         0.0300 
     41 H41       -14.1502   -6.3413   36.2039 H         1 UNK         0.0300 
     42 H42       -10.2105  -14.8594   39.5680 H         1 UNK         0.3537 
     43 H43        -8.8103  -12.7147   37.6686 H         1 UNK         0.4350 
@<TRIPOS>BOND
     1    1    2 ar   
     2    1    3 ar   
     3    1   25 1    
     4    2    4 ar   
     5    2   26 1    
     6    3    8 ar   
     7    3   27 1    
     8    4    9 ar   
     9    4   28 1    
    10    5    7 ar   
    11    5   10 ar   
    12    5   29 1    
    13    6    7 ar   
    14    6   11 ar   
    15    6   30 1    
    16    7   15 1    
    17    8    9 ar   
    18    8   19 1    
    19    9   21 1    
    20   10   12 ar   
    21   10   22 1    
    22   11   12 ar   
    23   11   23 1    
    24   12   24 1    
    25   13   14 2    
    26   13   15 1    
    27   13   31 1    
    28   14   19 1    
    29   14   32 1    
    30   15   20 2    
    31   16   22 1    
    32   16   33 1    
    33   16   34 1    
    34   16   35 1    
    35   17   23 1    
    36   17   36 1    
    37   17   37 1    
    38   17   38 1    
    39   18   24 1    
    40   18   39 1    
    41   18   40 1    
    42   18   41 1    
    43   19   42 1    
    44   21   43 1    
@<TRIPOS>SUBSTRUCTURE
     1 UNK         1 GROUP             0       ****    0 ROOT    
@<TRIPOS>MOLECULE
ZINC00302140_99
45   46    1
SMALL
USER_CHARGES


@<TRIPOS>ATOM
      1 C1         -8.5095  -14.9218   35.0351 C.ar      1 UNK        -0.1150 
      2 C2         -8.9852  -13.5998   35.0927 C.ar      1 UNK        -0.1150 
      3 C3         -8.1090  -15.5733   36.2159 C.ar      1 UNK        -0.1150 
      4 C4         -9.0595  -12.9302   36.3287 C.ar      1 UNK        -0.1150 
      5 C5        -11.3493   -9.5872   38.3920 C.ar      1 UNK        -0.1150 
      6 C6        -10.3831   -7.5808   39.3609 C.ar      1 UNK        -0.1150 
      7 C7        -10.5576   -8.9790   39.3885 C.ar      1 UNK        -0.1150 
      8 C8         -8.1810  -14.9081   37.4583 C.ar      1 UNK        -0.1150 
      9 C9         -8.6564  -13.5755   37.5217 C.ar      1 UNK         0.2000 
     10 C10       -11.9241   -8.8197   37.3530 C.ar      1 UNK         0.0850 
     11 C11       -10.9622   -6.7822   38.3433 C.ar      1 UNK         0.0850 
     12 C12       -11.7181   -7.4206   37.3165 C.ar      1 UNK         0.0850 
     13 C13        -9.5032  -11.1699   40.2387 C.2       1 UNK        -0.1150 
     14 C14        -9.1113  -11.6338   39.0360 C.2       1 UNK        -0.0970 
     15 C15        -9.9151   -9.7687   40.4830 C.2       1 UNK         0.5850 
     16 C16        -7.7413  -15.6395   38.7150 C.3       1 UNK        -0.0650 
     17 C17       -12.8946  -10.7727   36.3249 C.3       1 UNK         0.1100 
     18 C18       -10.1462   -4.7649   39.3959 C.3       1 UNK         0.1100 
     19 C19       -11.7098   -5.5920   35.7405 C.3       1 UNK         0.1100 
     20 N20        -8.7290  -12.9413   38.7714 N.pl3     1 UNK        -0.5717 
     21 O21        -9.7025   -9.2582   41.5818 O.2       1 UNK        -0.4700 
     22 O22       -12.6853   -9.3685   36.3398 O.3       1 UNK        -0.2850 
     23 O23       -10.8325   -5.4068   38.3303 O.3       1 UNK        -0.2850 
     24 O24       -12.3209   -6.7619   36.2621 O.3       1 UNK        -0.2850 
     25 H25        -8.4522  -15.4362   34.0863 H         1 UNK         0.1150 
     26 H26        -9.2948  -13.0968   34.1882 H         1 UNK         0.1150 
     27 H27        -7.7456  -16.5891   36.1606 H         1 UNK         0.1150 
     28 H28        -9.4376  -11.9203   36.3352 H         1 UNK         0.1150 
     29 H29       -11.5133  -10.6522   38.4398 H         1 UNK         0.1150 
     30 H30        -9.7935   -7.1371   40.1492 H         1 UNK         0.1150 
     31 H31        -9.5159  -11.8245   41.0966 H         1 UNK         0.1150 
     32 H32        -9.0590  -10.9759   38.1809 H         1 UNK         0.1150 
     33 H33        -6.9385  -15.0935   39.2116 H         1 UNK         0.0600 
     34 H34        -8.5776  -15.7412   39.4073 H         1 UNK         0.0600 
     35 H35        -7.3725  -16.6394   38.4860 H         1 UNK         0.0600 
     36 H36       -13.4991  -11.0352   35.4569 H         1 UNK         0.0300 
     37 H37       -13.4331  -11.1052   37.2132 H         1 UNK         0.0300 
     38 H38       -11.9526  -11.3171   36.2459 H         1 UNK         0.0300 
     39 H39       -10.1694   -3.6867   39.2382 H         1 UNK         0.0300 
     40 H40        -9.0989   -5.0675   39.4360 H         1 UNK         0.0300 
     41 H41       -10.6215   -4.9661   40.3571 H         1 UNK         0.0300 
     42 H42       -12.0258   -5.4578   34.7063 H         1 UNK         0.0300 
     43 H43       -10.6206   -5.6586   35.7436 H         1 UNK         0.0300 
     44 H44       -12.0233   -4.7051   36.2915 H         1 UNK         0.0300 
     45 H45        -8.5485  -13.5477   39.5584 H         1 UNK         0.3537 
@<TRIPOS>BOND
     1    1    2 ar   
     2    1    3 ar   
     3    1   25 1    
     4    2    4 ar   
     5    2   26 1    
     6    3    8 ar   
     7    3   27 1    
     8    4    9 ar   
     9    4   28 1    
    10    5    7 ar   
    11    5   10 ar   
    12    5   29 1    
    13    6    7 ar   
    14    6   11 ar   
    15    6   30 1    
    16    7   15 1    
    17    8    9 ar   
    18    8   16 1    
    19    9   20 1    
    20   10   12 ar   
    21   10   22 1    
    22   11   12 ar   
    23   11   23 1    
    24   12   24 1    
    25   13   14 2    
    26   13   15 1    
    27   13   31 1    
    28   14   20 1    
    29   14   32 1    
    30   15   21 2    
    31   16   33 1    
    32   16   34 1    
    33   16   35 1    
    34   17   22 1    
    35   17   36 1    
    36   17   37 1    
    37   17   38 1    
    38   18   23 1    
    39   18   39 1    
    40   18   40 1    
    41   18   41 1    
    42   19   24 1    
    43   19   42 1    
    44   19   43 1    
    45   19   44 1    
    46   20   45 1    
@<TRIPOS>SUBSTRUCTURE
     1 UNK         1 GROUP             0       ****    0 ROOT    
@<TRIPOS>MOLECULE
ZINC00302659_279
42   43    1
SMALL
USER_CHARGES


@<TRIPOS>ATOM
      1 C1         -4.4993  -13.4851   36.0733 C.ar      1 UNK        -0.1150 
      2 C2        -10.4657   -7.5002   37.1398 C.ar      1 UNK        -0.1150 
      3 C3         -5.4025  -12.4822   36.4724 C.ar      1 UNK        -0.1150 
      4 C4         -4.8753  -14.8407   36.1203 C.ar      1 UNK        -0.1150 
      5 C5        -11.5018   -6.5522   37.0974 C.ar      1 UNK        -0.1150 
      6 C6         -9.0943   -5.9068   38.3529 C.ar      1 UNK        -0.1150 
      7 C7         -7.0635  -14.1901   36.9619 C.ar      1 UNK        -0.1150 
      8 C8         -9.2454   -7.1875   37.7762 C.ar      1 UNK        -0.1150 
      9 C9         -6.6950  -12.8289   36.9255 C.ar      1 UNK         0.2000 
     10 C10        -6.1690  -15.2057   36.5665 C.ar      1 UNK         0.0850 
     11 C11       -11.3629   -5.2785   37.6819 C.ar      1 UNK         0.0850 
     12 C12       -10.1309   -4.9366   38.3176 C.ar      1 UNK         0.0850 
     13 C13        -8.4145   -9.5983   37.6847 C.2       1 UNK        -0.1150 
     14 C14        -7.4383  -10.5056   37.4945 C.2       1 UNK        -0.0970 
     15 C15        -8.1125   -8.1590   37.8649 C.2       1 UNK         0.5850 
     16 C16        -5.7422  -17.5486   36.2602 C.3       1 UNK         0.1100 
     17 C17       -12.5672   -3.2397   38.2432 C.3       1 UNK         0.1100 
     18 C18        -8.7278   -3.3414   39.4749 C.3       1 UNK         0.1100 
     19 N19        -7.6368  -11.8715   37.3319 N.pl3     1 UNK        -0.5717 
     20 O20        -6.9676   -7.7736   38.1101 O.2       1 UNK        -0.4700 
     21 O21        -6.6250  -16.5040   36.6434 O.3       1 UNK        -0.2850 
     22 O22       -12.4809   -4.4758   37.5527 O.3       1 UNK        -0.2850 
     23 O23        -9.9687   -3.6819   38.8723 O.3       1 UNK        -0.2850 
     24 H24        -3.5136  -13.2112   35.7273 H         1 UNK         0.1150 
     25 H25       -10.6257   -8.4527   36.6577 H         1 UNK         0.1150 
     26 H26        -5.0846  -11.4531   36.4128 H         1 UNK         0.1150 
     27 H27        -4.1542  -15.5795   35.8064 H         1 UNK         0.1150 
     28 H28       -12.4300   -6.8026   36.6046 H         1 UNK         0.1150 
     29 H29        -8.1506   -5.6880   38.8288 H         1 UNK         0.1150 
     30 H30        -8.0474  -14.4753   37.3026 H         1 UNK         0.1150 
     31 H31        -9.4443   -9.9151   37.7152 H         1 UNK         0.1150 
     32 H32        -6.4039  -10.1925   37.4716 H         1 UNK         0.1150 
     33 H33        -6.2489  -18.5070   36.3732 H         1 UNK         0.0300 
     34 H34        -4.8527  -17.5696   36.8912 H         1 UNK         0.0300 
     35 H35        -5.4433  -17.4559   35.2151 H         1 UNK         0.0300 
     36 H36       -13.5688   -2.8304   38.1130 H         1 UNK         0.0300 
     37 H37       -11.8657   -2.5078   37.8420 H         1 UNK         0.0300 
     38 H38       -12.4042   -3.3641   39.3145 H         1 UNK         0.0300 
     39 H39        -8.7775   -2.3162   39.8415 H         1 UNK         0.0300 
     40 H40        -7.9069   -3.3935   38.7582 H         1 UNK         0.0300 
     41 H41        -8.5084   -3.9839   40.3288 H         1 UNK         0.0300 
     42 H42        -8.5615  -12.2354   37.5131 H         1 UNK         0.3537 
@<TRIPOS>BOND
     1    1    3 ar   
     2    1    4 ar   
     3    1   24 1    
     4    2    5 ar   
     5    2    8 ar   
     6    2   25 1    
     7    3    9 ar   
     8    3   26 1    
     9    4   10 ar   
    10    4   27 1    
    11    5   11 ar   
    12    5   28 1    
    13    6    8 ar   
    14    6   12 ar   
    15    6   29 1    
    16    7    9 ar   
    17    7   10 ar   
    18    7   30 1    
    19    8   15 1    
    20    9   19 1    
    21   10   21 1    
    22   11   12 ar   
    23   11   22 1    
    24   12   23 1    
    25   13   14 2    
    26   13   15 1    
    27   13   31 1    
    28   14   19 1    
    29   14   32 1    
    30   15   20 2    
    31   16   21 1    
    32   16   33 1    
    33   16   34 1    
    34   16   35 1    
    35   17   22 1    
    36   17   36 1    
    37   17   37 1    
    38   17   38 1    
    39   18   23 1    
    40   18   39 1    
    41   18   40 1    
    42   18   41 1    
    43   19   42 1    
@<TRIPOS>SUBSTRUCTURE
     1 UNK         1 GROUP             0       ****    0 ROOT    
@<TRIPOS>MOLECULE
ZINC00304856_260
41   42    1
SMALL
USER_CHARGES


@<TRIPOS>ATOM
      1 C1         -6.7384  -12.8555   35.3566 C.ar      1 UNK        -0.1150 
      2 C2         -9.7249   -7.1703   39.3242 C.ar      1 UNK        -0.1150 
      3 C3         -7.3009  -12.2928   36.5158 C.ar      1 UNK        -0.1150 
      4 C4        -10.2476   -6.3756   38.2876 C.ar      1 UNK        -0.1150 
      5 C5         -6.5444  -14.2445   35.2749 C.ar      1 UNK        -0.1150 
      6 C6        -10.7654   -9.1339   38.3401 C.ar      1 UNK        -0.1150 
      7 C7         -9.9685   -8.5589   39.3563 C.ar      1 UNK        -0.1150 
      8 C8         -7.4948  -14.5175   37.5159 C.ar      1 UNK        -0.1150 
      9 C9         -7.6821  -13.1128   37.6042 C.ar      1 UNK         0.2000 
     10 C10       -11.0306   -6.9556   37.2594 C.ar      1 UNK         0.0850 
     11 C11       -11.2917   -8.3448   37.2872 C.ar      1 UNK         0.0850 
     12 C12        -6.9153  -15.0759   36.3472 C.ar      1 UNK         0.1800 
     13 C13        -8.9942  -10.7807   40.2274 C.2       1 UNK        -0.1150 
     14 C14        -8.5913  -11.2539   39.0318 C.2       1 UNK        -0.0970 
     15 C15        -9.3881   -9.3728   40.4676 C.2       1 UNK         0.5850 
     16 C16        -7.9083  -15.4157   38.6779 C.3       1 UNK        -0.0650 
     17 C17       -11.3362   -4.8379   36.1601 C.3       1 UNK         0.1100 
     18 C18       -12.3284  -10.2515   36.2450 C.3       1 UNK         0.1100 
     19 N19        -8.2262  -12.5703   38.7809 N.pl3     1 UNK        -0.5717 
     20 O20        -9.2074   -8.8755   41.5780 O.2       1 UNK        -0.4700 
     21 O21       -11.5683   -6.2370   36.2114 O.3       1 UNK        -0.2850 
     22 O22       -12.0621   -8.8575   36.2637 O.3       1 UNK        -0.2850 
     23 Cl23       -6.6328  -16.7749   36.1934 Cl        1 UNK        -0.1800 
     24 H24        -6.4479  -12.2193   34.5334 H         1 UNK         0.1150 
     25 H25        -9.1292   -6.7083   40.0996 H         1 UNK         0.1150 
     26 H26        -7.4158  -11.2210   36.5468 H         1 UNK         0.1150 
     27 H27       -10.0308   -5.3190   38.3047 H         1 UNK         0.1150 
     28 H28        -6.1045  -14.6770   34.3879 H         1 UNK         0.1150 
     29 H29       -10.9742  -10.1910   38.3868 H         1 UNK         0.1150 
     30 H30        -9.0246  -11.4325   41.0871 H         1 UNK         0.1150 
     31 H31        -8.5365  -10.5998   38.1752 H         1 UNK         0.1150 
     32 H32        -8.8606  -15.0965   39.1013 H         1 UNK         0.0600 
     33 H33        -8.0433  -16.4542   38.3799 H         1 UNK         0.0600 
     34 H34        -7.1506  -15.3847   39.4611 H         1 UNK         0.0600 
     35 H35       -11.8302   -4.4247   35.2807 H         1 UNK         0.0300 
     36 H36       -10.2722   -4.6131   36.0759 H         1 UNK         0.0300 
     37 H37       -11.7460   -4.3326   37.0356 H         1 UNK         0.0300 
     38 H38       -12.9261  -10.4902   35.3654 H         1 UNK         0.0300 
     39 H39       -12.8976  -10.5595   37.1228 H         1 UNK         0.0300 
     40 H40       -11.4081  -10.8343   36.1854 H         1 UNK         0.0300 
     41 H41        -8.3270  -13.2308   39.5385 H         1 UNK         0.3537 
@<TRIPOS>BOND
     1    1    3 ar   
     2    1    5 ar   
     3    1   24 1    
     4    2    4 ar   
     5    2    7 ar   
     6    2   25 1    
     7    3    9 ar   
     8    3   26 1    
     9    4   10 ar   
    10    4   27 1    
    11    5   12 ar   
    12    5   28 1    
    13    6    7 ar   
    14    6   11 ar   
    15    6   29 1    
    16    7   15 1    
    17    8    9 ar   
    18    8   12 ar   
    19    8   16 1    
    20    9   19 1    
    21   10   11 ar   
    22   10   21 1    
    23   11   22 1    
    24   12   23 1    
    25   13   14 2    
    26   13   15 1    
    27   13   30 1    
    28   14   19 1    
    29   14   31 1    
    30   15   20 2    
    31   16   32 1    
    32   16   33 1    
    33   16   34 1    
    34   17   21 1    
    35   17   35 1    
    36   17   36 1    
    37   17   37 1    
    38   18   22 1    
    39   18   38 1    
    40   18   39 1    
    41   18   40 1    
    42   19   41 1    
@<TRIPOS>SUBSTRUCTURE
     1 UNK         1 GROUP             0       ****    0 ROOT    
@<TRIPOS>MOLECULE
ZINC00314645_11
45   47    1
SMALL
USER_CHARGES


@<TRIPOS>ATOM
      1 C1         -4.3362   -8.5723   36.4960 C.ar      1 UNK        -0.1150 
      2 C2         -4.2507   -7.2108   36.8330 C.ar      1 UNK        -0.1150 
      3 C3         -4.7922   -9.5005   37.4485 C.ar      1 UNK        -0.1150 
      4 C4         -4.6399   -6.7767   38.1132 C.ar      1 UNK        -0.1150 
      5 C5         -7.6828   -5.9111   38.6578 C.ar      1 UNK        -0.1150 
      6 C6         -6.6621   -3.8848   39.5458 C.ar      1 UNK        -0.1150 
      7 C7         -6.8310   -5.2840   39.5935 C.ar      1 UNK        -0.1150 
      8 C8         -5.1858   -9.0740   38.7340 C.ar      1 UNK        -0.1150 
      9 C9         -5.1471   -7.6932   39.0702 C.ar      1 UNK        -0.0383 
     10 C10        -8.3154   -5.1623   37.6374 C.ar      1 UNK         0.0850 
     11 C11        -7.2955   -3.1131   38.5427 C.ar      1 UNK         0.0850 
     12 C12        -8.1087   -3.7641   37.5884 C.ar      1 UNK         0.0850 
     13 C13        -6.1565   -6.0779   40.6821 C.2       1 UNK         0.6150 
     14 C14        -5.6051  -10.1320   39.7450 C.3       1 UNK        -0.0050 
     15 C15        -6.1382   -9.5558   41.0633 C.3       1 UNK        -0.1200 
     16 C16        -5.4117   -8.2625   41.4547 C.3       1 UNK        -0.0500 
     17 C17        -9.2919   -7.1324   36.6633 C.3       1 UNK         0.1100 
     18 C18        -6.3986   -1.0571   39.4094 C.3       1 UNK         0.1100 
     19 C19        -8.0451   -3.0532   35.3719 C.3       1 UNK         0.1100 
     20 N20        -5.5649   -7.2701   40.3807 N.am      1 UNK        -0.0317 
     21 O21        -6.1425   -5.6001   41.8182 O.2       1 UNK        -0.5000 
     22 O22        -9.1337   -5.7216   36.6771 O.3       1 UNK        -0.2850 
     23 O23        -7.1575   -1.7451   38.4267 O.3       1 UNK        -0.2850 
     24 O24        -8.7203   -3.0140   36.6173 O.3       1 UNK        -0.2850 
     25 H25        -4.0338   -8.9072   35.5141 H         1 UNK         0.1150 
     26 H26        -3.8812   -6.4972   36.1107 H         1 UNK         0.1150 
     27 H27        -4.8259  -10.5495   37.1914 H         1 UNK         0.1150 
     28 H28        -4.5433   -5.7258   38.3438 H         1 UNK         0.1150 
     29 H29        -7.8256   -6.9781   38.7325 H         1 UNK         0.1150 
     30 H30        -6.0334   -3.4249   40.2934 H         1 UNK         0.1150 
     31 H31        -6.3438  -10.7994   39.2996 H         1 UNK         0.0600 
     32 H32        -4.7239  -10.7401   39.9543 H         1 UNK         0.0600 
     33 H33        -7.1990   -9.3282   40.9471 H         1 UNK         0.0600 
     34 H34        -6.0725  -10.3011   41.8567 H         1 UNK         0.0600 
     35 H35        -5.7929   -7.9227   42.4196 H         1 UNK         0.0600 
     36 H36        -4.3479   -8.4537   41.6013 H         1 UNK         0.0600 
     37 H37        -9.9291   -7.4144   35.8254 H         1 UNK         0.0300 
     38 H38        -9.7724   -7.4879   37.5757 H         1 UNK         0.0300 
     39 H39        -8.3347   -7.6404   36.5354 H         1 UNK         0.0300 
     40 H40        -6.4229    0.0116   39.1974 H         1 UNK         0.0300 
     41 H41        -5.3542   -1.3715   39.3989 H         1 UNK         0.0300 
     42 H42        -6.8121   -1.2037   40.4082 H         1 UNK         0.0300 
     43 H43        -8.5599   -2.4105   34.6581 H         1 UNK         0.0300 
     44 H44        -8.0203   -4.0615   34.9573 H         1 UNK         0.0300 
     45 H45        -7.0204   -2.6915   35.4708 H         1 UNK         0.0300 
@<TRIPOS>BOND
     1    1    2 ar   
     2    1    3 ar   
     3    1   25 1    
     4    2    4 ar   
     5    2   26 1    
     6    3    8 ar   
     7    3   27 1    
     8    4    9 ar   
     9    4   28 1    
    10    5    7 ar   
    11    5   10 ar   
    12    5   29 1    
    13    6    7 ar   
    14    6   11 ar   
    15    6   30 1    
    16    7   13 1    
    17    8    9 ar   
    18    8   14 1    
    19    9   20 1    
    20   10   12 ar   
    21   10   22 1    
    22   11   12 ar   
    23   11   23 1    
    24   12   24 1    
    25   13   20 am   BACKBONE|DICT|INTERRES
    26   13   21 2    
    27   14   15 1    
    28   14   31 1    
    29   14   32 1    
    30   15   16 1    
    31   15   33 1    
    32   15   34 1    
    33   16   20 1    
    34   16   35 1    
    35   16   36 1    
    36   17   22 1    
    37   17   37 1    
    38   17   38 1    
    39   17   39 1    
    40   18   23 1    
    41   18   40 1    
    42   18   41 1    
    43   18   42 1    
    44   19   24 1    
    45   19   43 1    
    46   19   44 1    
    47   19   45 1    
@<TRIPOS>SUBSTRUCTURE
     1 UNK         1 GROUP             0       ****    0 ROOT    
@<TRIPOS>MOLECULE
ZINC00314797_154
42   43    1
SMALL
USER_CHARGES


@<TRIPOS>ATOM
      1 C1         -7.8160  -15.4006   36.3276 C.ar      1 UNK        -0.1150 
      2 C2         -7.3757  -14.6598   35.2160 C.ar      1 UNK        -0.1150 
      3 C3         -8.2728  -14.7342   37.4813 C.ar      1 UNK        -0.1150 
      4 C4         -7.3889  -13.2536   35.2663 C.ar      1 UNK        -0.1150 
      5 C5        -11.4572   -9.3853   38.6150 C.ar      1 UNK        -0.1150 
      6 C6        -10.2877   -7.3445   39.2218 C.ar      1 UNK        -0.1150 
      7 C7        -10.4799   -8.7302   39.3921 C.ar      1 UNK        -0.1150 
      8 C8         -8.3030  -13.3239   37.5407 C.ar      1 UNK         0.2000 
      9 C9        -12.2113   -8.6764   37.6512 C.ar      1 UNK         0.0850 
     10 C10       -11.0357   -6.6051   38.2721 C.ar      1 UNK         0.0850 
     11 C11       -11.9900   -7.2915   37.4660 C.ar      1 UNK         0.0850 
     12 C12        -7.8433  -12.5824   36.4181 C.ar      1 UNK         0.2200 
     13 C13        -9.2787  -10.8692   40.1853 C.2       1 UNK        -0.1150 
     14 C14        -9.1199  -11.4224   38.9671 C.2       1 UNK        -0.0970 
     15 C15        -9.6589   -9.4548   40.4078 C.2       1 UNK         0.5850 
     16 C16       -13.3913  -10.6665   36.9774 C.3       1 UNK         0.1100 
     17 C17        -9.9594   -4.5505   38.9504 C.3       1 UNK         0.1100 
     18 C18       -12.2320   -5.6085   35.7572 C.3       1 UNK         0.1100 
     19 N19        -8.7731  -12.7465   38.7334 N.pl3     1 UNK        -0.5717 
     20 O20        -9.2735   -8.8786   41.4242 O.2       1 UNK        -0.4700 
     21 O21       -13.1688   -9.2700   36.8528 O.3       1 UNK        -0.2850 
     22 O22       -10.8849   -5.2400   38.1224 O.3       1 UNK        -0.2850 
     23 O23       -12.7734   -6.6890   36.5009 O.3       1 UNK        -0.2850 
     24 F24        -7.8037  -11.2288   36.4240 F         1 UNK        -0.2200 
     25 H25        -7.8042  -16.4808   36.2963 H         1 UNK         0.1150 
     26 H26        -7.0233  -15.1667   34.3289 H         1 UNK         0.1150 
     27 H27        -8.6101  -15.3211   38.3227 H         1 UNK         0.1150 
     28 H28        -7.0424  -12.6781   34.4209 H         1 UNK         0.1150 
     29 H29       -11.6235  -10.4387   38.7755 H         1 UNK         0.1150 
     30 H30        -9.5502   -6.8641   39.8471 H         1 UNK         0.1150 
     31 H31        -9.1048  -11.4559   41.0743 H         1 UNK         0.1150 
     32 H32        -9.2721  -10.8382   38.0713 H         1 UNK         0.1150 
     33 H33       -14.1545  -10.9727   36.2621 H         1 UNK         0.0300 
     34 H34       -13.7520  -10.9248   37.9739 H         1 UNK         0.0300 
     35 H35       -12.4873  -11.2364   36.7581 H         1 UNK         0.0300 
     36 H36        -9.9821   -3.4887   38.7053 H         1 UNK         0.0300 
     37 H37        -8.9396   -4.9025   38.7892 H         1 UNK         0.0300 
     38 H38       -10.2163   -4.6487   40.0061 H         1 UNK         0.0300 
     39 H39       -12.7383   -5.5512   34.7940 H         1 UNK         0.0300 
     40 H40       -11.1664   -5.7352   35.5601 H         1 UNK         0.0300 
     41 H41       -12.3984   -4.6594   36.2666 H         1 UNK         0.0300 
     42 H42        -8.8077  -13.3764   39.5214 H         1 UNK         0.3537 
@<TRIPOS>BOND
     1    1    2 ar   
     2    1    3 ar   
     3    1   25 1    
     4    2    4 ar   
     5    2   26 1    
     6    3    8 ar   
     7    3   27 1    
     8    4   12 ar   
     9    4   28 1    
    10    5    7 ar   
    11    5    9 ar   
    12    5   29 1    
    13    6    7 ar   
    14    6   10 ar   
    15    6   30 1    
    16    7   15 1    
    17    8   12 ar   
    18    8   19 1    
    19    9   11 ar   
    20    9   21 1    
    21   10   11 ar   
    22   10   22 1    
    23   11   23 1    
    24   12   24 1    
    25   13   14 2    
    26   13   15 1    
    27   13   31 1    
    28   14   19 1    
    29   14   32 1    
    30   15   20 2    
    31   16   21 1    
    32   16   33 1    
    33   16   34 1    
    34   16   35 1    
    35   17   22 1    
    36   17   36 1    
    37   17   37 1    
    38   17   38 1    
    39   18   23 1    
    40   18   39 1    
    41   18   40 1    
    42   18   41 1    
    43   19   42 1    
@<TRIPOS>SUBSTRUCTURE
     1 UNK         1 GROUP             0       ****    0 ROOT    
@<TRIPOS>MOLECULE
ZINC00315104_116
42   43    1
SMALL
USER_CHARGES


@<TRIPOS>ATOM
      1 C1         -8.2914  -15.3597   36.2132 C.ar      1 UNK        -0.1150 
      2 C2         -7.5954  -14.6690   35.2059 C.ar      1 UNK        -0.1150 
      3 C3         -8.6530  -14.6941   37.3996 C.ar      1 UNK        -0.1150 
      4 C4         -7.2524  -13.3181   35.3970 C.ar      1 UNK        -0.1150 
      5 C5        -11.4784   -9.4336   38.6213 C.ar      1 UNK        -0.1150 
      6 C6        -10.3169   -7.3932   39.2459 C.ar      1 UNK        -0.1150 
      7 C7        -10.5247   -8.7753   39.4246 C.ar      1 UNK        -0.1150 
      8 C8         -8.3399  -13.3313   37.5942 C.ar      1 UNK         0.2000 
      9 C9        -12.1926   -8.7313   37.6230 C.ar      1 UNK         0.0850 
     10 C10       -11.0247   -6.6604   38.2609 C.ar      1 UNK         0.0850 
     11 C11       -11.9540   -7.3505   37.4290 C.ar      1 UNK         0.0850 
     12 C12        -7.6082  -12.6438   36.5826 C.ar      1 UNK         0.1800 
     13 C13        -9.3331  -10.9016   40.2599 C.2       1 UNK        -0.1150 
     14 C14        -9.1376  -11.4494   39.0447 C.2       1 UNK        -0.0970 
     15 C15        -9.7432   -9.4944   40.4741 C.2       1 UNK         0.5850 
     16 C16       -13.3774  -10.7169   36.9438 C.3       1 UNK         0.1100 
     17 C17        -9.9472   -4.6078   38.9426 C.3       1 UNK         0.1100 
     18 C18       -12.1158   -5.6909   35.6889 C.3       1 UNK         0.1100 
     19 N19        -8.7580  -12.7629   38.8097 N.pl3     1 UNK        -0.5717 
     20 O20        -9.4134   -8.9186   41.5099 O.2       1 UNK        -0.4700 
     21 O21       -13.1245   -9.3280   36.7971 O.3       1 UNK        -0.2850 
     22 O22       -10.8588   -5.2983   38.1001 O.3       1 UNK        -0.2850 
     23 O23       -12.6962   -6.7547   36.4280 O.3       1 UNK        -0.2850 
     24 Cl24       -7.0612  -11.0104   36.7532 Cl        1 UNK        -0.1800 
     25 H25        -8.5506  -16.3998   36.0756 H         1 UNK         0.1150 
     26 H26        -7.3146  -15.1755   34.2934 H         1 UNK         0.1150 
     27 H27        -9.1958  -15.2394   38.1576 H         1 UNK         0.1150 
     28 H28        -6.6975  -12.7927   34.6338 H         1 UNK         0.1150 
     29 H29       -11.6563  -10.4841   38.7883 H         1 UNK         0.1150 
     30 H30        -9.5991   -6.9108   39.8920 H         1 UNK         0.1150 
     31 H31        -9.1677  -11.4862   41.1520 H         1 UNK         0.1150 
     32 H32        -9.2788  -10.8706   38.1423 H         1 UNK         0.1150 
     33 H33       -14.1216  -11.0243   36.2093 H         1 UNK         0.0300 
     34 H34       -13.7765  -10.9470   37.9324 H         1 UNK         0.0300 
     35 H35       -12.4774  -11.3078   36.7674 H         1 UNK         0.0300 
     36 H36        -9.9490   -3.5498   38.6805 H         1 UNK         0.0300 
     37 H37        -8.9282   -4.9753   38.8148 H         1 UNK         0.0300 
     38 H38       -10.2340   -4.6861   39.9922 H         1 UNK         0.0300 
     39 H39       -12.5834   -5.6444   34.7057 H         1 UNK         0.0300 
     40 H40       -11.0445   -5.8306   35.5354 H         1 UNK         0.0300 
     41 H41       -12.2921   -4.7319   36.1762 H         1 UNK         0.0300 
     42 H42        -8.8419  -13.4132   39.5777 H         1 UNK         0.3537 
@<TRIPOS>BOND
     1    1    2 ar   
     2    1    3 ar   
     3    1   25 1    
     4    2    4 ar   
     5    2   26 1    
     6    3    8 ar   
     7    3   27 1    
     8    4   12 ar   
     9    4   28 1    
    10    5    7 ar   
    11    5    9 ar   
    12    5   29 1    
    13    6    7 ar   
    14    6   10 ar   
    15    6   30 1    
    16    7   15 1    
    17    8   12 ar   
    18    8   19 1    
    19    9   11 ar   
    20    9   21 1    
    21   10   11 ar   
    22   10   22 1    
    23   11   23 1    
    24   12   24 1    
    25   13   14 2    
    26   13   15 1    
    27   13   31 1    
    28   14   19 1    
    29   14   32 1    
    30   15   20 2    
    31   16   21 1    
    32   16   33 1    
    33   16   34 1    
    34   16   35 1    
    35   17   22 1    
    36   17   36 1    
    37   17   37 1    
    38   17   38 1    
    39   18   23 1    
    40   18   39 1    
    41   18   40 1    
    42   18   41 1    
    43   19   42 1    
@<TRIPOS>SUBSTRUCTURE
     1 UNK         1 GROUP             0       ****    0 ROOT    
@<TRIPOS>MOLECULE
ZINC00352409_163
38   39    1
SMALL
USER_CHARGES


@<TRIPOS>ATOM
      1 C1         -7.0901  -14.1639   35.2943 C.ar      1 UNK        -0.1150 
      2 C2         -7.6441  -12.8700   35.2980 C.ar      1 UNK        -0.1150 
      3 C3         -6.8247  -14.8144   36.5139 C.ar      1 UNK        -0.1150 
      4 C4         -9.8521   -7.0064   39.3996 C.ar      1 UNK        -0.1150 
      5 C5         -7.9307  -12.2263   36.5180 C.ar      1 UNK        -0.1150 
      6 C6         -7.1114  -14.1709   37.7336 C.ar      1 UNK        -0.1150 
      7 C7        -10.3244   -6.2463   38.3141 C.ar      1 UNK        -0.1150 
      8 C8        -10.6348   -9.0356   38.3149 C.ar      1 UNK        -0.1150 
      9 C9         -9.9916   -8.4095   39.4074 C.ar      1 UNK        -0.1150 
     10 C10        -7.6624  -12.8724   37.7477 C.ar      1 UNK         0.2000 
     11 C11       -10.9501   -6.8766   37.2103 C.ar      1 UNK         0.0850 
     12 C12       -11.1064   -8.2817   37.2118 C.ar      1 UNK         0.0850 
     13 C13        -8.9650  -10.5666   40.3688 C.2       1 UNK        -0.1150 
     14 C14        -8.4073  -10.9955   39.2197 C.2       1 UNK        -0.0970 
     15 C15        -9.4645   -9.1870   40.5708 C.2       1 UNK         0.5850 
     16 C16       -11.2956   -4.7805   36.0823 C.3       1 UNK         0.1100 
     17 C17       -11.8724  -10.2560   36.0655 C.3       1 UNK         0.1100 
     18 N18        -7.9360  -12.2803   38.9889 N.pl3     1 UNK        -0.5717 
     19 O19        -9.4179   -8.6833   41.6921 O.2       1 UNK        -0.4700 
     20 O20       -11.4283   -6.1932   36.1113 O.3       1 UNK        -0.2850 
     21 O21       -11.7224   -8.8451   36.1129 O.3       1 UNK        -0.2850 
     22 H22        -6.8701  -14.6564   34.3577 H         1 UNK         0.1150 
     23 H23        -7.8512  -12.3682   34.3639 H         1 UNK         0.1150 
     24 H24        -6.3997  -15.8076   36.5146 H         1 UNK         0.1150 
     25 H25        -9.3748   -6.5064   40.2314 H         1 UNK         0.1150 
     26 H26        -8.3624  -11.2384   36.4834 H         1 UNK         0.1150 
     27 H27        -6.8997  -14.6844   38.6597 H         1 UNK         0.1150 
     28 H28       -10.1910   -5.1766   38.3530 H         1 UNK         0.1150 
     29 H29       -10.7676  -10.1056   38.3400 H         1 UNK         0.1150 
     30 H30        -9.0552  -11.2327   41.2132 H         1 UNK         0.1150 
     31 H31        -8.2804  -10.3216   38.3849 H         1 UNK         0.1150 
     32 H32       -11.7235   -4.3995   35.1551 H         1 UNK         0.0300 
     33 H33       -10.2482   -4.4775   36.1105 H         1 UNK         0.0300 
     34 H34       -11.8318   -4.3126   36.9090 H         1 UNK         0.0300 
     35 H35       -12.3565  -10.5335   35.1294 H         1 UNK         0.0300 
     36 H36       -12.5010  -10.6175   36.8802 H         1 UNK         0.0300 
     37 H37       -10.9070  -10.7626   36.0991 H         1 UNK         0.0300 
     38 H38        -7.8311  -12.8906   39.7875 H         1 UNK         0.3537 
@<TRIPOS>BOND
     1    1    2 ar   
     2    1    3 ar   
     3    1   22 1    
     4    2    5 ar   
     5    2   23 1    
     6    3    6 ar   
     7    3   24 1    
     8    4    7 ar   
     9    4    9 ar   
    10    4   25 1    
    11    5   10 ar   
    12    5   26 1    
    13    6   10 ar   
    14    6   27 1    
    15    7   11 ar   
    16    7   28 1    
    17    8    9 ar   
    18    8   12 ar   
    19    8   29 1    
    20    9   15 1    
    21   10   18 1    
    22   11   12 ar   
    23   11   20 1    
    24   12   21 1    
    25   13   14 2    
    26   13   15 1    
    27   13   30 1    
    28   14   18 1    
    29   14   31 1    
    30   15   19 2    
    31   16   20 1    
    32   16   32 1    
    33   16   33 1    
    34   16   34 1    
    35   17   21 1    
    36   17   35 1    
    37   17   36 1    
    38   17   37 1    
    39   18   38 1    
@<TRIPOS>SUBSTRUCTURE
     1 UNK         1 GROUP             0       ****    0 ROOT    
@<TRIPOS>MOLECULE
ZINC00408127_34
41   43    1
SMALL
USER_CHARGES


@<TRIPOS>ATOM
      1 C1         -4.2803  -10.9959   37.4237 C.ar      1 UNK        -0.1150 
      2 C2         -4.3785  -11.8963   38.5018 C.ar      1 UNK        -0.1150 
      3 C3         -4.6013   -9.6373   37.6121 C.ar      1 UNK        -0.1150 
      4 C4         -4.7973  -11.4400   39.7667 C.ar      1 UNK        -0.1150 
      5 C5         -8.0073   -5.8852   38.6636 C.ar      1 UNK        -0.1150 
      6 C6         -6.7548   -3.9788   39.5255 C.ar      1 UNK        -0.1150 
      7 C7         -5.0234   -9.1794   38.8802 C.ar      1 UNK        -0.1150 
      8 C8         -7.0646   -5.3536   39.5717 C.ar      1 UNK        -0.1150 
      9 C9         -5.1221  -10.0821   39.9602 C.ar      1 UNK         0.0308 
     10 C10        -8.6035   -5.0626   37.6785 C.ar      1 UNK         0.0850 
     11 C11        -7.3467   -3.1360   38.5551 C.ar      1 UNK         0.0850 
     12 C12        -8.2622   -3.6914   37.6338 C.ar      1 UNK         0.0850 
     13 C13        -5.8908   -8.4095   41.3697 C.ar      1 UNK         0.4234 
     14 C14        -5.3696   -7.7361   39.1204 C.ar      1 UNK         0.7455 
     15 C15        -6.4474   -6.2180   40.6432 C.2       1 UNK         0.7455 
     16 C16        -9.8322   -6.9030   36.7321 C.3       1 UNK         0.1100 
     17 C17        -6.1950   -1.1946   39.3841 C.3       1 UNK         0.1100 
     18 C18        -8.1820   -2.9035   35.4470 C.3       1 UNK         0.1100 
     19 N19        -5.5333   -9.6499   41.2228 N.2       1 UNK        -0.3898 
     20 N20        -5.9231   -7.4411   40.3345 N.pl3     1 UNK        -0.3675 
     21 O21        -5.1353   -6.9216   38.2229 O.2       1 UNK        -0.5080 
     22 O22        -6.4807   -5.7679   41.7934 O.2       1 UNK        -0.5080 
     23 O23        -9.5143   -5.5199   36.7481 O.3       1 UNK        -0.2850 
     24 O24        -7.0794   -1.7869   38.4453 O.3       1 UNK        -0.2850 
     25 O25        -8.8453   -2.8763   36.6986 O.3       1 UNK        -0.2850 
     26 H26        -3.9563  -11.3464   36.4541 H         1 UNK         0.1150 
     27 H27        -4.1299  -12.9383   38.3605 H         1 UNK         0.1150 
     28 H28        -4.5209   -8.9476   36.7830 H         1 UNK         0.1150 
     29 H29        -4.8680  -12.1364   40.5903 H         1 UNK         0.1150 
     30 H30        -8.2589   -6.9315   38.7364 H         1 UNK         0.1150 
     31 H31        -6.0542   -3.5922   40.2502 H         1 UNK         0.1150 
     32 H32        -6.2044   -8.0560   42.3545 H         1 UNK         0.0581 
     33 H33       -10.5310   -7.1008   35.9194 H         1 UNK         0.0300 
     34 H34       -10.3127   -7.2119   37.6614 H         1 UNK         0.0300 
     35 H35        -8.9452   -7.5141   36.5598 H         1 UNK         0.0300 
     36 H36        -6.1024   -0.1304   39.1679 H         1 UNK         0.0300 
     37 H37        -5.1971   -1.6307   39.3228 H         1 UNK         0.0300 
     38 H38        -6.5721   -1.2920   40.4032 H         1 UNK         0.0300 
     39 H39        -8.6986   -2.2470   34.7471 H         1 UNK         0.0300 
     40 H40        -8.1700   -3.9071   35.0196 H         1 UNK         0.0300 
     41 H41        -7.1536   -2.5517   35.5416 H         1 UNK         0.0300 
@<TRIPOS>BOND
     1    1    2 ar   
     2    1    3 ar   
     3    1   26 1    
     4    2    4 ar   
     5    2   27 1    
     6    3    7 ar   
     7    3   28 1    
     8    4    9 ar   
     9    4   29 1    
    10    5    8 ar   
    11    5   10 ar   
    12    5   30 1    
    13    6    8 ar   
    14    6   11 ar   
    15    6   31 1    
    16    7    9 ar   
    17    7   14 ar   
    18    8   15 1    
    19    9   19 ar   
    20   10   12 ar   
    21   10   23 1    
    22   11   12 ar   
    23   11   24 1    
    24   12   25 1    
    25   13   19 ar   
    26   13   20 ar   
    27   13   32 1    
    28   14   20 ar   
    29   14   21 2    
    30   15   20 1    
    31   15   22 2    
    32   16   23 1    
    33   16   33 1    
    34   16   34 1    
    35   16   35 1    
    36   17   24 1    
    37   17   36 1    
    38   17   37 1    
    39   17   38 1    
    40   18   25 1    
    41   18   39 1    
    42   18   40 1    
    43   18   41 1    
@<TRIPOS>SUBSTRUCTURE
     1 UNK         1 GROUP             0       ****    0 ROOT    
@<TRIPOS>MOLECULE
ZINC00409539_102
42   43    1
SMALL
USER_CHARGES


@<TRIPOS>ATOM
      1 C1         -7.6997   -5.6007   38.3942 C.ar      1 UNK        -0.1150 
      2 C2         -3.0652   -9.8630   35.4237 C.ar      1 UNK        -0.1150 
      3 C3         -4.4212  -11.8867   35.5364 C.ar      1 UNK        -0.1150 
      4 C4         -8.5383   -4.8187   37.5827 C.ar      1 UNK        -0.1150 
      5 C5         -3.6419   -9.4073   36.6255 C.ar      1 UNK        -0.1150 
      6 C6         -4.9977  -11.4310   36.7379 C.ar      1 UNK        -0.1150 
      7 C7         -6.7478   -3.5692   39.3218 C.ar      1 UNK        -0.1150 
      8 C8         -6.7878   -4.9801   39.2742 C.ar      1 UNK        -0.1150 
      9 C9         -3.4543  -11.1018   34.8745 C.ar      1 UNK        -0.1150 
     10 C10        -8.4967   -3.4117   37.6169 C.ar      1 UNK         0.0850 
     11 C11        -7.5919   -2.7644   38.5115 C.ar      1 UNK         0.0850 
     12 C12        -4.6143  -10.1904   37.2827 C.ar      1 UNK         0.1525 
     13 C13        -5.8668   -5.7600   40.1548 C.2       1 UNK         0.5850 
     14 C14        -2.8288  -11.5829   33.5814 C.3       1 UNK        -0.0650 
     15 C15        -9.2950   -1.4097   36.4913 C.3       1 UNK         0.1100 
     16 C16        -6.6790   -0.7497   39.4916 C.3       1 UNK         0.1100 
     17 C17        -5.9273   -7.2876   40.1069 C.3       1 UNK        -0.1200 
     18 C18        -5.1376   -7.8578   38.9206 C.3       1 UNK         0.0475 
     19 O19        -5.0520   -5.2311   40.9097 O.2       1 UNK        -0.4700 
     20 O20        -9.3841   -2.8014   36.7510 O.3       1 UNK        -0.2850 
     21 O21        -7.5641   -1.3854   38.5801 O.3       1 UNK        -0.2850 
     22 S22        -5.3677   -9.6526   38.7894 S.3       1 UNK        -0.3200 
     23 H23        -7.7755   -6.6751   38.3168 H         1 UNK         0.1150 
     24 H24        -2.3207   -9.2580   34.9262 H         1 UNK         0.1150 
     25 H25        -4.7267  -12.8398   35.1296 H         1 UNK         0.1150 
     26 H26        -9.2300   -5.3052   36.9103 H         1 UNK         0.1150 
     27 H27        -3.3225   -8.4605   37.0306 H         1 UNK         0.1150 
     28 H28        -5.7386  -12.0339   37.2424 H         1 UNK         0.1150 
     29 H29        -6.0480   -3.1163   40.0076 H         1 UNK         0.1150 
     30 H30        -1.7608  -11.7537   33.7194 H         1 UNK         0.0600 
     31 H31        -3.2812  -12.5151   33.2419 H         1 UNK         0.0600 
     32 H32        -2.9596  -10.8378   32.7963 H         1 UNK         0.0600 
     33 H33        -9.9601   -1.1602   35.6651 H         1 UNK         0.0300 
     34 H34        -8.2866   -1.1169   36.1957 H         1 UNK         0.0300 
     35 H35        -9.6164   -0.8225   37.3520 H         1 UNK         0.0300 
     36 H36        -6.8017    0.3307   39.4149 H         1 UNK         0.0300 
     37 H37        -5.6370   -0.9779   39.2628 H         1 UNK         0.0300 
     38 H38        -6.8963   -1.0310   40.5231 H         1 UNK         0.0300 
     39 H39        -5.5174   -7.6772   41.0387 H         1 UNK         0.0600 
     40 H40        -6.9666   -7.6114   40.0763 H         1 UNK         0.0600 
     41 H41        -5.4544   -7.3985   37.9834 H         1 UNK         0.0600 
     42 H42        -4.0762   -7.6402   39.0463 H         1 UNK         0.0600 
@<TRIPOS>BOND
     1    1    4 ar   
     2    1    8 ar   
     3    1   23 1    
     4    2    5 ar   
     5    2    9 ar   
     6    2   24 1    
     7    3    6 ar   
     8    3    9 ar   
     9    3   25 1    
    10    4   10 ar   
    11    4   26 1    
    12    5   12 ar   
    13    5   27 1    
    14    6   12 ar   
    15    6   28 1    
    16    7    8 ar   
    17    7   11 ar   
    18    7   29 1    
    19    8   13 1    
    20    9   14 1    
    21   10   11 ar   
    22   10   20 1    
    23   11   21 1    
    24   12   22 1    
    25   13   17 1    
    26   13   19 2    
    27   14   30 1    
    28   14   31 1    
    29   14   32 1    
    30   15   20 1    
    31   15   33 1    
    32   15   34 1    
    33   15   35 1    
    34   16   21 1    
    35   16   36 1    
    36   16   37 1    
    37   16   38 1    
    38   17   18 1    
    39   17   39 1    
    40   17   40 1    
    41   18   22 1    
    42   18   41 1    
    43   18   42 1    
@<TRIPOS>SUBSTRUCTURE
     1 UNK         1 GROUP             0       ****    0 ROOT    
@<TRIPOS>MOLECULE
ZINC00432835_39
38   39    1
SMALL
USER_CHARGES


@<TRIPOS>ATOM
      1 C1         -6.2205  -10.3680   40.9587 C.ar      1 UNK        -0.1150 
      2 C2         -5.6943  -10.6879   39.6945 C.ar      1 UNK        -0.1150 
      3 C3         -7.2547   -4.4193   39.4687 C.ar      1 UNK        -0.1150 
      4 C4         -8.3323   -6.4785   38.7345 C.ar      1 UNK        -0.1150 
      5 C5         -5.7742   -8.3370   39.0727 C.ar      1 UNK        -0.1150 
      6 C6         -7.4108   -5.8177   39.5779 C.ar      1 UNK        -0.1150 
      7 C7         -6.3156   -7.9983   40.3354 C.ar      1 UNK        -0.1150 
      8 C8         -6.5274   -9.0322   41.2916 C.ar      1 UNK         0.1800 
      9 C9         -7.9888   -3.6785   38.5116 C.ar      1 UNK         0.0850 
     10 C10        -9.0717   -5.7589   37.7664 C.ar      1 UNK         0.0850 
     11 C11        -8.8856   -4.3632   37.6585 C.ar      1 UNK         0.0850 
     12 C12        -5.4693   -9.6709   38.7522 C.ar      1 UNK         0.1800 
     13 C13        -6.6209   -6.5593   40.6040 C.2       1 UNK         0.7000 
     14 C14        -7.0476   -1.5912   39.2536 C.3       1 UNK         0.1100 
     15 C15       -10.1912   -7.7430   36.9897 C.3       1 UNK         0.1100 
     16 C16        -8.8716   -3.3370   35.5650 C.3       1 UNK         0.1100 
     17 N17        -7.0475   -8.7938   42.5651 N.pl3     1 UNK        -0.9000 
     18 O18        -6.2276   -6.0005   41.6300 O.2       1 UNK        -0.4700 
     19 O19        -7.8834   -2.3109   38.3595 O.3       1 UNK        -0.2850 
     20 O20        -9.9729   -6.3433   36.9003 O.3       1 UNK        -0.2850 
     21 O21        -9.6143   -3.6716   36.7252 O.3       1 UNK        -0.2850 
     22 Cl22       -4.8245  -10.0567   37.2009 Cl        1 UNK        -0.1800 
     23 H23        -6.3867  -11.1629   41.6711 H         1 UNK         0.1150 
     24 H24        -5.4614  -11.7134   39.4481 H         1 UNK         0.1150 
     25 H25        -6.5596   -3.9304   40.1351 H         1 UNK         0.1150 
     26 H26        -8.4678   -7.5433   38.8458 H         1 UNK         0.1150 
     27 H27        -5.5903   -7.5692   38.3344 H         1 UNK         0.1150 
     28 H28        -7.1054   -0.5281   39.0209 H         1 UNK         0.0300 
     29 H29        -6.0042   -1.8930   39.1547 H         1 UNK         0.0300 
     30 H30        -7.3664   -1.7191   40.2890 H         1 UNK         0.0300 
     31 H31       -10.9289   -8.0389   36.2438 H         1 UNK         0.0300 
     32 H32       -10.5823   -8.0240   37.9684 H         1 UNK         0.0300 
     33 H33        -9.2770   -8.3033   36.7891 H         1 UNK         0.0300 
     34 H34        -9.5265   -2.8539   34.8403 H         1 UNK         0.0300 
     35 H35        -8.4550   -4.2296   35.0963 H         1 UNK         0.0300 
     36 H36        -8.0565   -2.6486   35.7896 H         1 UNK         0.0300 
     37 H37        -6.9879   -9.5191   43.2662 H         1 UNK         0.3600 
     38 H38        -6.9827   -7.8541   42.9422 H         1 UNK         0.3600 
@<TRIPOS>BOND
     1    1    2 ar   
     2    1    8 ar   
     3    1   23 1    
     4    2   12 ar   
     5    2   24 1    
     6    3    6 ar   
     7    3    9 ar   
     8    3   25 1    
     9    4    6 ar   
    10    4   10 ar   
    11    4   26 1    
    12    5    7 ar   
    13    5   12 ar   
    14    5   27 1    
    15    6   13 1    
    16    7    8 ar   
    17    7   13 1    
    18    8   17 1    
    19    9   11 ar   
    20    9   19 1    
    21   10   11 ar   
    22   10   20 1    
    23   11   21 1    
    24   12   22 1    
    25   13   18 2    
    26   14   19 1    
    27   14   28 1    
    28   14   29 1    
    29   14   30 1    
    30   15   20 1    
    31   15   31 1    
    32   15   32 1    
    33   15   33 1    
    34   16   21 1    
    35   16   34 1    
    36   16   35 1    
    37   16   36 1    
    38   17   37 1    
    39   17   38 1    
@<TRIPOS>SUBSTRUCTURE
     1 UNK         1 GROUP             0       ****    0 ROOT    
@<TRIPOS>MOLECULE
ZINC00459097_114
42   43    1
SMALL
USER_CHARGES


@<TRIPOS>ATOM
      1 C1         -7.1765  -12.0725   35.2656 C.ar      1 UNK        -0.1150 
      2 C2         -7.2830  -11.3518   36.4717 C.ar      1 UNK        -0.1150 
      3 C3         -6.5983  -13.3561   35.2585 C.ar      1 UNK        -0.1150 
      4 C4         -9.7735   -8.0975   38.5056 C.ar      1 UNK        -0.1150 
      5 C5         -8.8806   -5.9832   39.2983 C.ar      1 UNK        -0.1150 
      6 C6         -6.2350  -13.1984   37.6644 C.ar      1 UNK        -0.1150 
      7 C7         -8.9713   -7.3840   39.4198 C.ar      1 UNK        -0.1150 
      8 C8         -6.8082  -11.9092   37.6831 C.ar      1 UNK         0.2000 
      9 C9        -10.4424   -7.4307   37.4537 C.ar      1 UNK         0.0850 
     10 C10        -9.5545   -5.2835   38.2662 C.ar      1 UNK         0.0850 
     11 C11       -10.3218   -6.0271   37.3207 C.ar      1 UNK         0.0850 
     12 C12        -6.1291  -13.9187   36.4591 C.ar      1 UNK         0.2200 
     13 C13        -7.7290   -9.4477   40.3284 C.2       1 UNK        -0.1150 
     14 C14        -7.3635   -9.9469   39.1313 C.2       1 UNK        -0.0970 
     15 C15        -8.2293   -8.0671   40.5224 C.2       1 UNK         0.5850 
     16 C16       -11.3672   -9.4937   36.6152 C.3       1 UNK         0.1100 
     17 C17        -8.8110   -3.1628   39.1584 C.3       1 UNK         0.1100 
     18 C18       -10.5568   -4.2700   35.6727 C.3       1 UNK         0.1100 
     19 N19        -6.8983  -11.2359   38.9113 N.pl3     1 UNK        -0.5717 
     20 O20        -8.0068   -7.4844   41.5824 O.2       1 UNK        -0.4700 
     21 O21       -11.2174   -8.0853   36.5167 O.3       1 UNK        -0.2850 
     22 O22        -9.5032   -3.9065   38.1654 O.3       1 UNK        -0.2850 
     23 O23       -11.0153   -5.4783   36.2583 O.3       1 UNK        -0.2850 
     24 F24        -5.5766  -15.1543   36.4563 F         1 UNK        -0.2200 
     25 H25        -7.5406  -11.6400   34.3452 H         1 UNK         0.1150 
     26 H26        -7.7396  -10.3746   36.4413 H         1 UNK         0.1150 
     27 H27        -6.5143  -13.9130   34.3365 H         1 UNK         0.1150 
     28 H28        -9.8710   -9.1649   38.6273 H         1 UNK         0.1150 
     29 H29        -8.2789   -5.4594   40.0259 H         1 UNK         0.1150 
     30 H30        -5.8677  -13.6511   38.5727 H         1 UNK         0.1150 
     31 H31        -7.6521  -10.0535   41.2184 H         1 UNK         0.1150 
     32 H32        -7.4033   -9.3322   38.2439 H         1 UNK         0.1150 
     33 H33       -12.0017   -9.8440   35.8012 H         1 UNK         0.0300 
     34 H34       -11.8472   -9.7788   37.5522 H         1 UNK         0.0300 
     35 H35       -10.4078  -10.0055   36.5274 H         1 UNK         0.0300 
     36 H36        -8.9126   -2.0988   38.9443 H         1 UNK         0.0300 
     37 H37        -7.7456   -3.3963   39.1614 H         1 UNK         0.0300 
     38 H38        -9.2254   -3.3379   40.1523 H         1 UNK         0.0300 
     39 H39       -10.9487   -4.1974   34.6585 H         1 UNK         0.0300 
     40 H40        -9.4685   -4.2313   35.6058 H         1 UNK         0.0300 
     41 H41       -10.9219   -3.4023   36.2224 H         1 UNK         0.0300 
     42 H42        -6.6462  -11.7831   39.7237 H         1 UNK         0.3537 
@<TRIPOS>BOND
     1    1    2 ar   
     2    1    3 ar   
     3    1   25 1    
     4    2    8 ar   
     5    2   26 1    
     6    3   12 ar   
     7    3   27 1    
     8    4    7 ar   
     9    4    9 ar   
    10    4   28 1    
    11    5    7 ar   
    12    5   10 ar   
    13    5   29 1    
    14    6    8 ar   
    15    6   12 ar   
    16    6   30 1    
    17    7   15 1    
    18    8   19 1    
    19    9   11 ar   
    20    9   21 1    
    21   10   11 ar   
    22   10   22 1    
    23   11   23 1    
    24   12   24 1    
    25   13   14 2    
    26   13   15 1    
    27   13   31 1    
    28   14   19 1    
    29   14   32 1    
    30   15   20 2    
    31   16   21 1    
    32   16   33 1    
    33   16   34 1    
    34   16   35 1    
    35   17   22 1    
    36   17   36 1    
    37   17   37 1    
    38   17   38 1    
    39   18   23 1    
    40   18   39 1    
    41   18   40 1    
    42   18   41 1    
    43   19   42 1    
@<TRIPOS>SUBSTRUCTURE
     1 UNK         1 GROUP             0       ****    0 ROOT    
@<TRIPOS>MOLECULE
ZINC00459136_127
42   43    1
SMALL
USER_CHARGES


@<TRIPOS>ATOM
      1 C1         -5.3474  -10.7187   37.8209 C.ar      1 UNK        -0.1150 
      2 C2         -5.7346   -8.7902   36.3826 C.ar      1 UNK        -0.1150 
      3 C3         -4.8897  -11.4527   36.7089 C.ar      1 UNK        -0.1150 
      4 C4         -5.2785   -9.5255   35.2714 C.ar      1 UNK        -0.1150 
      5 C5         -8.6285   -6.8054   38.8091 C.ar      1 UNK        -0.1150 
      6 C6         -7.4608   -4.8090   39.5433 C.ar      1 UNK        -0.1150 
      7 C7         -7.8407   -6.1456   39.7719 C.ar      1 UNK        -0.1150 
      8 C8         -5.7758   -9.3803   37.6630 C.ar      1 UNK         0.2000 
      9 C9         -8.9802   -6.1645   37.5996 C.ar      1 UNK         0.0850 
     10 C10        -7.8224   -4.1272   38.3540 C.ar      1 UNK         0.0850 
     11 C11        -8.5742   -4.8294   37.3624 C.ar      1 UNK         0.0850 
     12 C12        -4.8554  -10.8573   35.4344 C.ar      1 UNK         0.1800 
     13 C13        -7.0888   -8.2719   41.0291 C.2       1 UNK        -0.1150 
     14 C14        -6.5872   -9.0099   40.0120 C.2       1 UNK        -0.0970 
     15 C15        -7.4027   -6.8216   41.0288 C.2       1 UNK         0.5850 
     16 C16       -10.0443   -8.1560   36.7564 C.3       1 UNK         0.1100 
     17 C17        -6.7883   -2.0950   39.1648 C.3       1 UNK         0.1100 
     18 C18        -8.3824   -3.1450   35.6142 C.3       1 UNK         0.1100 
     19 N19        -6.2402   -8.5992   38.7280 N.pl3     1 UNK        -0.5717 
     20 O20        -7.2699   -6.1744   42.0661 O.2       1 UNK        -0.4700 
     21 O21        -9.7035   -6.7864   36.6016 O.3       1 UNK        -0.2850 
     22 O22        -7.4683   -2.8089   38.1417 O.3       1 UNK        -0.2850 
     23 O23        -8.9798   -4.3177   36.1424 O.3       1 UNK        -0.2850 
     24 Cl24       -4.2938  -11.7575   34.0755 Cl        1 UNK        -0.1800 
     25 H25        -5.3491  -11.2012   38.7853 H         1 UNK         0.1150 
     26 H26        -6.0607   -7.7700   36.2387 H         1 UNK         0.1150 
     27 H27        -4.5610  -12.4739   36.8334 H         1 UNK         0.1150 
     28 H28        -5.2531   -9.0683   34.2933 H         1 UNK         0.1150 
     29 H29        -8.9391   -7.8197   39.0085 H         1 UNK         0.1150 
     30 H30        -6.8788   -4.3223   40.3116 H         1 UNK         0.1150 
     31 H31        -7.2681   -8.7718   41.9696 H         1 UNK         0.1150 
     32 H32        -6.4166  -10.0594   40.1949 H         1 UNK         0.1150 
     33 H33       -10.5701   -8.4974   35.8648 H         1 UNK         0.0300 
     34 H34       -10.7090   -8.3074   37.6080 H         1 UNK         0.0300 
     35 H35        -9.1554   -8.7782   36.8731 H         1 UNK         0.0300 
     36 H36        -6.6291   -1.0674   38.8385 H         1 UNK         0.0300 
     37 H37        -5.8087   -2.5281   39.3710 H         1 UNK         0.0300 
     38 H38        -7.3727   -2.0594   40.0854 H         1 UNK         0.0300 
     39 H39        -8.6577   -3.0511   34.5640 H         1 UNK         0.0300 
     40 H40        -7.2934   -3.1850   35.6618 H         1 UNK         0.0300 
     41 H41        -8.7453   -2.2513   36.1227 H         1 UNK         0.0300 
     42 H42        -6.4298   -7.6338   38.4855 H         1 UNK         0.3537 
@<TRIPOS>BOND
     1    1    3 ar   
     2    1    8 ar   
     3    1   25 1    
     4    2    4 ar   
     5    2    8 ar   
     6    2   26 1    
     7    3   12 ar   
     8    3   27 1    
     9    4   12 ar   
    10    4   28 1    
    11    5    7 ar   
    12    5    9 ar   
    13    5   29 1    
    14    6    7 ar   
    15    6   10 ar   
    16    6   30 1    
    17    7   15 1    
    18    8   19 1    
    19    9   11 ar   
    20    9   21 1    
    21   10   11 ar   
    22   10   22 1    
    23   11   23 1    
    24   12   24 1    
    25   13   14 2    
    26   13   15 1    
    27   13   31 1    
    28   14   19 1    
    29   14   32 1    
    30   15   20 2    
    31   16   21 1    
    32   16   33 1    
    33   16   34 1    
    34   16   35 1    
    35   17   22 1    
    36   17   36 1    
    37   17   37 1    
    38   17   38 1    
    39   18   23 1    
    40   18   39 1    
    41   18   40 1    
    42   18   41 1    
    43   19   42 1    
@<TRIPOS>SUBSTRUCTURE
     1 UNK         1 GROUP             0       ****    0 ROOT    
@<TRIPOS>MOLECULE
ZINC00459136_159
42   43    1
SMALL
USER_CHARGES


@<TRIPOS>ATOM
      1 C1         -8.8175  -12.7404   36.4755 C.ar      1 UNK        -0.1150 
      2 C2         -7.6462  -14.5356   37.6336 C.ar      1 UNK        -0.1150 
      3 C3         -8.6929  -13.4442   35.2617 C.ar      1 UNK        -0.1150 
      4 C4         -7.5210  -15.2378   36.4190 C.ar      1 UNK        -0.1150 
      5 C5        -10.3297   -7.3866   39.2525 C.ar      1 UNK        -0.1150 
      6 C6        -11.2827   -9.4927   38.5141 C.ar      1 UNK        -0.1150 
      7 C7        -10.4596   -8.7800   39.4084 C.ar      1 UNK        -0.1150 
      8 C8         -8.2891  -13.2807   37.6717 C.ar      1 UNK         0.2000 
      9 C9        -10.9837   -6.6910   38.2042 C.ar      1 UNK         0.0850 
     10 C10       -11.9412   -8.8314   37.4528 C.ar      1 UNK         0.0850 
     11 C11       -11.7898   -7.4336   37.2863 C.ar      1 UNK         0.0850 
     12 C12        -8.0433  -14.6916   35.2322 C.ar      1 UNK         0.1800 
     13 C13        -9.2251  -10.8393   40.3295 C.2       1 UNK        -0.1150 
     14 C14        -8.8643  -11.3384   39.1310 C.2       1 UNK        -0.0970 
     15 C15        -9.7287   -9.4594   40.5196 C.2       1 UNK         0.5850 
     16 C16       -10.0763   -4.5896   38.9947 C.3       1 UNK         0.1100 
     17 C17       -12.9422  -10.8859   36.6811 C.3       1 UNK         0.1100 
     18 C18       -12.2884   -5.5755   35.7841 C.3       1 UNK         0.1100 
     19 N19        -8.3907  -12.6231   38.9050 N.pl3     1 UNK        -0.5717 
     20 O20        -9.5137   -8.8735   41.5794 O.2       1 UNK        -0.4700 
     21 O21       -10.8597   -5.3220   38.0626 O.3       1 UNK        -0.2850 
     22 O22       -12.7411   -9.4879   36.5379 O.3       1 UNK        -0.2850 
     23 O23       -12.4843   -6.9144   36.2066 O.3       1 UNK        -0.2850 
     24 Cl24       -7.8899  -15.5509   33.7457 Cl        1 UNK        -0.1800 
     25 H25        -9.3306  -11.7914   36.4633 H         1 UNK         0.1150 
     26 H26        -7.2368  -14.9690   38.5340 H         1 UNK         0.1150 
     27 H27        -9.0973  -13.0269   34.3514 H         1 UNK         0.1150 
     28 H28        -7.0228  -16.1955   36.3952 H         1 UNK         0.1150 
     29 H29        -9.7064   -6.8669   39.9643 H         1 UNK         0.1150 
     30 H30       -11.4026  -10.5549   38.6590 H         1 UNK         0.1150 
     31 H31        -9.1410  -11.4423   41.2208 H         1 UNK         0.1150 
     32 H32        -8.9134  -10.7245   38.2433 H         1 UNK         0.1150 
     33 H33       -10.1026   -3.5326   38.7306 H         1 UNK         0.0300 
     34 H34        -9.0324   -4.9056   38.9758 H         1 UNK         0.0300 
     35 H35       -10.4680   -4.6836   40.0086 H         1 UNK         0.0300 
     36 H36       -13.5952  -11.2370   35.8822 H         1 UNK         0.0300 
     37 H37       -13.4265  -11.1228   37.6293 H         1 UNK         0.0300 
     38 H38       -12.0035  -11.4361   36.6038 H         1 UNK         0.0300 
     39 H39       -12.8176   -5.4214   34.8440 H         1 UNK         0.0300 
     40 H40       -11.2356   -5.3577   35.6022 H         1 UNK         0.0300 
     41 H41       -12.6986   -4.8667   36.5039 H         1 UNK         0.0300 
     42 H42        -8.1219  -13.1702   39.7118 H         1 UNK         0.3537 
@<TRIPOS>BOND
     1    1    3 ar   
     2    1    8 ar   
     3    1   25 1    
     4    2    4 ar   
     5    2    8 ar   
     6    2   26 1    
     7    3   12 ar   
     8    3   27 1    
     9    4   12 ar   
    10    4   28 1    
    11    5    7 ar   
    12    5    9 ar   
    13    5   29 1    
    14    6    7 ar   
    15    6   10 ar   
    16    6   30 1    
    17    7   15 1    
    18    8   19 1    
    19    9   11 ar   
    20    9   21 1    
    21   10   11 ar   
    22   10   22 1    
    23   11   23 1    
    24   12   24 1    
    25   13   14 2    
    26   13   15 1    
    27   13   31 1    
    28   14   19 1    
    29   14   32 1    
    30   15   20 2    
    31   16   21 1    
    32   16   33 1    
    33   16   34 1    
    34   16   35 1    
    35   17   22 1    
    36   17   36 1    
    37   17   37 1    
    38   17   38 1    
    39   18   23 1    
    40   18   39 1    
    41   18   40 1    
    42   18   41 1    
    43   19   42 1    
@<TRIPOS>SUBSTRUCTURE
     1 UNK         1 GROUP             0       ****    0 ROOT    
@<TRIPOS>MOLECULE
ZINC00459152_153
43   44    1
SMALL
USER_CHARGES


@<TRIPOS>ATOM
      1 C1        -10.7221  -20.7920   35.7109 C.ar      1 UNK        -0.1150 
      2 C2        -11.2162  -19.4817   35.5604 C.ar      1 UNK        -0.1150 
      3 C3        -10.5223  -21.3288   36.9965 C.ar      1 UNK        -0.1150 
      4 C4        -15.4637  -13.6307   37.2827 C.ar      1 UNK        -0.1150 
      5 C5        -14.4084  -12.2129   38.9455 C.ar      1 UNK        -0.1150 
      6 C6        -11.3118  -19.2403   37.9810 C.ar      1 UNK        -0.1150 
      7 C7        -14.3956  -13.3956   38.1772 C.ar      1 UNK        -0.1150 
      8 C8        -11.5120  -18.6928   36.6914 C.ar      1 UNK         0.2000 
      9 C9        -10.8192  -20.5517   38.1328 C.ar      1 UNK         0.1500 
     10 C10       -16.5177  -12.7089   37.1392 C.ar      1 UNK         0.0850 
     11 C11       -15.4491  -11.2738   38.8268 C.ar      1 UNK         0.0850 
     12 C12       -16.4935  -11.4992   37.8885 C.ar      1 UNK         0.0850 
     13 C13       -13.0305  -15.3377   37.2575 C.2       1 UNK        -0.1150 
     14 C14       -12.2767  -16.4357   37.4502 C.2       1 UNK        -0.0970 
     15 C15       -13.2619  -14.3530   38.3388 C.2       1 UNK         0.5850 
     16 C16       -18.8182  -12.6020   36.4441 C.3       1 UNK         0.1100 
     17 C17       -16.5615   -9.6965   40.2312 C.3       1 UNK         0.1100 
     18 C18       -16.9870   -9.5198   36.7790 C.3       1 UNK         0.1100 
     19 N19       -12.0098  -17.3977   36.4842 N.pl3     1 UNK        -0.5717 
     20 O20       -12.5280  -14.3057   39.3272 O.2       1 UNK        -0.4700 
     21 O21       -10.6357  -21.0635   39.3843 O.3       1 UNK        -0.5850 
     22 O22       -17.4909  -13.0601   36.2273 O.3       1 UNK        -0.2850 
     23 O23       -15.3594  -10.1577   39.6283 O.3       1 UNK        -0.2850 
     24 O24       -17.4376  -10.5300   37.6681 O.3       1 UNK        -0.2850 
     25 H25       -10.4965  -21.3859   34.8376 H         1 UNK         0.1150 
     26 H26       -11.3623  -19.0866   34.5659 H         1 UNK         0.1150 
     27 H27       -10.1444  -22.3355   37.0982 H         1 UNK         0.1150 
     28 H28       -15.5135  -14.5379   36.7000 H         1 UNK         0.1150 
     29 H29       -13.6090  -12.0168   39.6470 H         1 UNK         0.1150 
     30 H30       -11.5397  -18.6743   38.8706 H         1 UNK         0.1150 
     31 H31       -13.4822  -15.1565   36.2956 H         1 UNK         0.1150 
     32 H32       -11.8149  -16.6189   38.4109 H         1 UNK         0.1150 
     33 H33       -19.5129  -13.2705   35.9359 H         1 UNK         0.0300 
     34 H34       -18.9659  -11.6057   36.0272 H         1 UNK         0.0300 
     35 H35       -19.0851  -12.5958   37.5023 H         1 UNK         0.0300 
     36 H36       -17.2576  -10.5093   40.4458 H         1 UNK         0.0300 
     37 H37       -17.0598   -8.9564   39.6058 H         1 UNK         0.0300 
     38 H38       -16.3223   -9.2120   41.1776 H         1 UNK         0.0300 
     39 H39       -17.7836   -8.7945   36.6161 H         1 UNK         0.0300 
     40 H40       -16.7135   -9.9415   35.8106 H         1 UNK         0.0300 
     41 H41       -16.1246   -8.9865   37.1818 H         1 UNK         0.0300 
     42 H42       -12.2449  -17.1759   35.5276 H         1 UNK         0.3537 
     43 H43       -10.2984  -21.9454   39.3955 H         1 UNK         0.4350 
@<TRIPOS>BOND
     1    1    2 ar   
     2    1    3 ar   
     3    1   25 1    
     4    2    8 ar   
     5    2   26 1    
     6    3    9 ar   
     7    3   27 1    
     8    4    7 ar   
     9    4   10 ar   
    10    4   28 1    
    11    5    7 ar   
    12    5   11 ar   
    13    5   29 1    
    14    6    8 ar   
    15    6    9 ar   
    16    6   30 1    
    17    7   15 1    
    18    8   19 1    
    19    9   21 1    
    20   10   12 ar   
    21   10   22 1    
    22   11   12 ar   
    23   11   23 1    
    24   12   24 1    
    25   13   14 2    
    26   13   15 1    
    27   13   31 1    
    28   14   19 1    
    29   14   32 1    
    30   15   20 2    
    31   16   22 1    
    32   16   33 1    
    33   16   34 1    
    34   16   35 1    
    35   17   23 1    
    36   17   36 1    
    37   17   37 1    
    38   17   38 1    
    39   18   24 1    
    40   18   39 1    
    41   18   40 1    
    42   18   41 1    
    43   19   42 1    
    44   21   43 1    
@<TRIPOS>SUBSTRUCTURE
     1 UNK         1 GROUP             0       ****    0 ROOT    
@<TRIPOS>MOLECULE
ZINC00462374_51
47   48    1
SMALL
USER_CHARGES


@<TRIPOS>ATOM
      1 C1         -9.8783  -20.9901   37.6725 C.ar      1 UNK        -0.1150 
      2 C2         -9.4265  -19.7889   38.2523 C.ar      1 UNK        -0.1150 
      3 C3        -11.1076  -21.0211   36.9862 C.ar      1 UNK        -0.1150 
      4 C4        -10.2041  -18.6195   38.1469 C.ar      1 UNK        -0.1150 
      5 C5        -11.8860  -19.8522   36.8804 C.ar      1 UNK        -0.1150 
      6 C6        -15.3705  -13.5598   37.6116 C.ar      1 UNK        -0.1150 
      7 C7        -13.9876  -12.2146   39.0868 C.ar      1 UNK        -0.1150 
      8 C8        -14.2209  -13.4315   38.4190 C.ar      1 UNK        -0.1150 
      9 C9        -11.4377  -18.6474   37.4632 C.ar      1 UNK        -0.1150 
     10 C10       -16.2910  -12.5036   37.4781 C.ar      1 UNK         0.0850 
     11 C11       -14.8913  -11.1421   38.9786 C.ar      1 UNK         0.0850 
     12 C12       -16.0339  -11.2683   38.1397 C.ar      1 UNK         0.0850 
     13 C13       -13.2336  -14.5525   38.5473 C.2       1 UNK         0.6150 
     14 C14       -13.9411  -18.1332   39.1680 C.3       1 UNK        -0.1800 
     15 C15       -18.5847  -12.0628   36.8815 C.3       1 UNK         0.1100 
     16 C16       -15.6454   -9.3365   40.3471 C.3       1 UNK         0.1100 
     17 C17       -16.3188   -9.2919   36.9515 C.3       1 UNK         0.1100 
     18 C18       -12.2746  -17.3844   37.3598 C.3       1 UNK        -0.0050 
     19 C19       -12.9980  -17.0220   38.6766 C.3       1 UNK         0.1400 
     20 N20       -13.7568  -15.7852   38.5205 N.am      1 UNK        -0.5000 
     21 O21       -12.0376  -14.3328   38.7226 O.2       1 UNK        -0.5000 
     22 O22       -17.3708  -12.7664   36.6604 O.3       1 UNK        -0.2850 
     23 O23       -14.5771  -10.0056   39.6900 O.3       1 UNK        -0.2850 
     24 O24       -16.8444  -10.1838   37.9230 O.3       1 UNK        -0.2850 
     25 H25        -9.2813  -21.8867   37.7532 H         1 UNK         0.1150 
     26 H26        -8.4826  -19.7632   38.7772 H         1 UNK         0.1150 
     27 H27       -11.4534  -21.9424   36.5403 H         1 UNK         0.1150 
     28 H28        -9.8511  -17.7003   38.5934 H         1 UNK         0.1150 
     29 H29       -12.8284  -19.8868   36.3532 H         1 UNK         0.1150 
     30 H30       -15.5591  -14.4746   37.0694 H         1 UNK         0.1150 
     31 H31       -13.1050  -12.1027   39.7013 H         1 UNK         0.1150 
     32 H32       -14.7015  -18.3735   38.4244 H         1 UNK         0.0600 
     33 H33       -14.4477  -17.8436   40.0893 H         1 UNK         0.0600 
     34 H34       -13.3905  -19.0500   39.3831 H         1 UNK         0.0600 
     35 H35       -18.5760  -11.0934   36.3835 H         1 UNK         0.0300 
     36 H36       -18.7942  -11.9253   37.9435 H         1 UNK         0.0300 
     37 H37       -19.4098  -12.6349   36.4577 H         1 UNK         0.0300 
     38 H38       -16.4315  -10.0224   40.6672 H         1 UNK         0.0300 
     39 H39       -16.0817   -8.5664   39.7118 H         1 UNK         0.0300 
     40 H40       -15.2607   -8.8408   41.2381 H         1 UNK         0.0300 
     41 H41       -17.0093   -8.4611   36.8069 H         1 UNK         0.0300 
     42 H42       -16.1882   -9.7914   35.9901 H         1 UNK         0.0300 
     43 H43       -15.3576   -8.8790   37.2611 H         1 UNK         0.0300 
     44 H44       -11.6126  -16.5706   37.0592 H         1 UNK         0.0600 
     45 H45       -12.9976  -17.4962   36.5509 H         1 UNK         0.0600 
     46 H46       -12.2440  -16.8634   39.4513 H         1 UNK         0.0600 
     47 H47       -14.7569  -15.8527   38.4235 H         1 UNK         0.3000 
@<TRIPOS>BOND
     1    1    2 ar   
     2    1    3 ar   
     3    1   25 1    
     4    2    4 ar   
     5    2   26 1    
     6    3    5 ar   
     7    3   27 1    
     8    4    9 ar   
     9    4   28 1    
    10    5    9 ar   
    11    5   29 1    
    12    6    8 ar   
    13    6   10 ar   
    14    6   30 1    
    15    7    8 ar   
    16    7   11 ar   
    17    7   31 1    
    18    8   13 1    
    19    9   18 1    
    20   10   12 ar   
    21   10   22 1    
    22   11   12 ar   
    23   11   23 1    
    24   12   24 1    
    25   13   20 am   BACKBONE|DICT|INTERRES
    26   13   21 2    
    27   14   19 1    
    28   14   32 1    
    29   14   33 1    
    30   14   34 1    
    31   15   22 1    
    32   15   35 1    
    33   15   36 1    
    34   15   37 1    
    35   16   23 1    
    36   16   38 1    
    37   16   39 1    
    38   16   40 1    
    39   17   24 1    
    40   17   41 1    
    41   17   42 1    
    42   17   43 1    
    43   18   19 1    
    44   18   44 1    
    45   18   45 1    
    46   19   20 1    
    47   19   46 1    
    48   20   47 1    
@<TRIPOS>SUBSTRUCTURE
     1 UNK         1 GROUP             0       ****    0 ROOT    
@<TRIPOS>MOLECULE
ZINC00482445_171
40   41    1
SMALL
USER_CHARGES


@<TRIPOS>ATOM
      1 C1         -5.5607  -10.7822   40.1996 C.ar      1 UNK        -0.1150 
      2 C2         -4.3932   -9.7790   38.3065 C.ar      1 UNK        -0.1150 
      3 C3         -5.5234  -12.0358   39.5567 C.ar      1 UNK        -0.1150 
      4 C4         -4.3554  -11.0334   37.6655 C.ar      1 UNK        -0.1150 
      5 C5         -7.7244   -5.8959   38.1558 C.ar      1 UNK        -0.1150 
      6 C6         -7.2531   -4.0080   39.6123 C.ar      1 UNK        -0.1150 
      7 C7         -7.0228   -5.3507   39.2538 C.ar      1 UNK        -0.1150 
      8 C8         -4.9956   -9.6506   39.5753 C.ar      1 UNK        -0.0418 
      9 C9         -8.6471   -5.1191   37.4115 C.ar      1 UNK         0.0850 
     10 C10        -8.1629   -3.2072   38.8836 C.ar      1 UNK         0.0850 
     11 C11        -8.8485   -3.7558   37.7748 C.ar      1 UNK         0.0850 
     12 C12        -4.9205  -12.1616   38.2903 C.ar      1 UNK         0.1800 
     13 C13        -6.0540   -6.1568   40.0499 C.2       1 UNK         0.6250 
     14 C14        -9.1950   -7.0129   36.0099 C.3       1 UNK         0.1100 
     15 C15        -7.7556   -1.2978   40.2954 C.3       1 UNK         0.1100 
     16 C16        -9.8911   -3.0272   35.7264 C.3       1 UNK         0.1100 
     17 C17        -5.0345   -8.3000   40.2605 C.3       1 UNK         0.2318 
     18 O18        -5.4410   -5.7176   41.0241 O.2       1 UNK        -0.4300 
     19 O19        -9.3756   -5.6493   36.3639 O.3       1 UNK        -0.2850 
     20 O20        -8.4221   -1.8857   39.1885 O.3       1 UNK        -0.2850 
     21 O21        -9.7165   -2.8971   37.1290 O.3       1 UNK        -0.2850 
     22 O22        -5.9155   -7.4131   39.5955 O.3       1 UNK        -0.3300 
     23 Cl23       -4.8751  -13.6961   37.5051 Cl        1 UNK        -0.1800 
     24 H24        -6.0273  -10.6925   41.1699 H         1 UNK         0.1150 
     25 H25        -3.9617   -8.9145   37.8229 H         1 UNK         0.1150 
     26 H26        -5.9574  -12.9030   40.0328 H         1 UNK         0.1150 
     27 H27        -3.8939  -11.1327   36.6940 H         1 UNK         0.1150 
     28 H28        -7.5513   -6.9285   37.8984 H         1 UNK         0.1150 
     29 H29        -6.7154   -3.6054   40.4574 H         1 UNK         0.1150 
     30 H30        -9.8500   -7.2544   35.1729 H         1 UNK         0.0300 
     31 H31        -9.4570   -7.6788   36.8334 H         1 UNK         0.0300 
     32 H32        -8.1704   -7.2106   35.6918 H         1 UNK         0.0300 
     33 H33        -8.0761   -0.2611   40.3972 H         1 UNK         0.0300 
     34 H34        -6.6740   -1.2951   40.1543 H         1 UNK         0.0300 
     35 H35        -7.9998   -1.8103   41.2268 H         1 UNK         0.0300 
     36 H36       -10.2008   -2.0661   35.3164 H         1 UNK         0.0300 
     37 H37       -10.6774   -3.7455   35.4936 H         1 UNK         0.0300 
     38 H38        -8.9694   -3.3174   35.2199 H         1 UNK         0.0300 
     39 H39        -5.3480   -8.4225   41.2984 H         1 UNK         0.0300 
     40 H40        -4.0268   -7.8815   40.2741 H         1 UNK         0.0300 
@<TRIPOS>BOND
     1    1    3 ar   
     2    1    8 ar   
     3    1   24 1    
     4    2    4 ar   
     5    2    8 ar   
     6    2   25 1    
     7    3   12 ar   
     8    3   26 1    
     9    4   12 ar   
    10    4   27 1    
    11    5    7 ar   
    12    5    9 ar   
    13    5   28 1    
    14    6    7 ar   
    15    6   10 ar   
    16    6   29 1    
    17    7   13 1    
    18    8   17 1    
    19    9   11 ar   
    20    9   19 1    
    21   10   11 ar   
    22   10   20 1    
    23   11   21 1    
    24   12   23 1    
    25   13   18 2    
    26   13   22 1    
    27   14   19 1    
    28   14   30 1    
    29   14   31 1    
    30   14   32 1    
    31   15   20 1    
    32   15   33 1    
    33   15   34 1    
    34   15   35 1    
    35   16   21 1    
    36   16   36 1    
    37   16   37 1    
    38   16   38 1    
    39   17   22 1    
    40   17   39 1    
    41   17   40 1    
@<TRIPOS>SUBSTRUCTURE
     1 UNK         1 GROUP             0       ****    0 ROOT    
@<TRIPOS>MOLECULE
ZINC00501164_42
46   47    1
SMALL
USER_CHARGES


@<TRIPOS>ATOM
      1 C1         -8.1145   -5.9056   38.6144 C.ar      1 UNK        -0.1150 
      2 C2         -6.8215   -4.0637   39.5507 C.ar      1 UNK        -0.1150 
      3 C3         -7.2173   -5.4157   39.5881 C.ar      1 UNK        -0.1150 
      4 C4         -8.5734   -5.0681   37.5696 C.ar      1 UNK         0.0850 
      5 C5         -7.2722   -3.2066   38.5190 C.ar      1 UNK         0.0850 
      6 C6         -8.1357   -3.7240   37.5280 C.ar      1 UNK         0.0850 
      7 C7         -4.8416  -10.0888   39.7890 C.2       1 UNK         0.4700 
      8 C8         -6.7334   -6.2907   40.7106 C.2       1 UNK         0.6150 
      9 C9         -5.6964   -9.8695   41.0309 C.3       1 UNK        -0.1200 
     10 C10        -5.6993   -7.8272   39.0343 C.3       1 UNK        -0.0500 
     11 C11        -4.5461   -8.8507   38.9373 C.3       1 UNK        -0.0600 
     12 C12        -5.7294   -8.3968   41.5013 C.3       1 UNK         0.0100 
     13 C13        -4.2280   -9.2156   37.4755 C.3       1 UNK        -0.1800 
     14 C14        -4.4263   -7.9668   42.2114 C.3       1 UNK        -0.1800 
     15 C15        -9.9308   -6.8158   36.6230 C.3       1 UNK         0.1100 
     16 C16        -6.1208   -1.3093   39.4437 C.3       1 UNK         0.1100 
     17 C17        -7.8448   -3.0261   35.3265 C.3       1 UNK         0.1100 
     18 N18        -6.0906   -7.4552   40.4137 N.am      1 UNK        -0.1400 
     19 O19        -4.4232  -11.2057   39.4938 O.2       1 UNK        -0.4700 
     20 O20        -6.9231   -5.9099   41.8649 O.2       1 UNK        -0.5000 
     21 O21        -9.4359   -5.4864   36.5770 O.3       1 UNK        -0.2850 
     22 O22        -6.9094   -1.8800   38.4107 O.3       1 UNK        -0.2850 
     23 O23        -8.5768   -2.8918   36.5321 O.3       1 UNK        -0.2850 
     24 H24        -8.4479   -6.9283   38.6923 H         1 UNK         0.1150 
     25 H25        -6.1650   -3.7064   40.3302 H         1 UNK         0.1150 
     26 H26        -6.7068  -10.2024   40.7938 H         1 UNK         0.0600 
     27 H27        -5.3345  -10.5180   41.8290 H         1 UNK         0.0600 
     28 H28        -5.3944   -6.9366   38.4820 H         1 UNK         0.0600 
     29 H29        -6.5722   -8.2317   38.5211 H         1 UNK         0.0600 
     30 H30        -3.6497   -8.3962   39.3579 H         1 UNK         0.0600 
     31 H31        -6.5197   -8.3617   42.2547 H         1 UNK         0.0600 
     32 H32        -5.0726   -9.7114   36.9953 H         1 UNK         0.0600 
     33 H33        -3.3726   -9.8902   37.4132 H         1 UNK         0.0600 
     34 H34        -3.9843   -8.3282   36.8914 H         1 UNK         0.0600 
     35 H35        -3.5694   -7.9477   41.5393 H         1 UNK         0.0600 
     36 H36        -4.1861   -8.6474   43.0290 H         1 UNK         0.0600 
     37 H37        -4.5214   -6.9711   42.6466 H         1 UNK         0.0600 
     38 H38       -10.6108   -6.9748   35.7862 H         1 UNK         0.0300 
     39 H39       -10.4900   -7.0018   37.5410 H         1 UNK         0.0300 
     40 H40        -9.1240   -7.5446   36.5345 H         1 UNK         0.0300 
     41 H41        -5.9617   -0.2523   39.2306 H         1 UNK         0.0300 
     42 H42        -5.1407   -1.7837   39.5055 H         1 UNK         0.0300 
     43 H43        -6.6194   -1.3790   40.4115 H         1 UNK         0.0300 
     44 H44        -8.2163   -2.3111   34.5928 H         1 UNK         0.0300 
     45 H45        -7.9482   -4.0258   34.9032 H         1 UNK         0.0300 
     46 H46        -6.7851   -2.8223   35.4870 H         1 UNK         0.0300 
@<TRIPOS>BOND
     1    1    3 ar   
     2    1    4 ar   
     3    1   24 1    
     4    2    3 ar   
     5    2    5 ar   
     6    2   25 1    
     7    3    8 1    
     8    4    6 ar   
     9    4   21 1    
    10    5    6 ar   
    11    5   22 1    
    12    6   23 1    
    13    7    9 1    
    14    7   11 1    
    15    7   19 2    
    16    8   18 am   BACKBONE|DICT|INTERRES
    17    8   20 2    
    18    9   12 1    
    19    9   26 1    
    20    9   27 1    
    21   10   11 1    
    22   10   18 1    
    23   10   28 1    
    24   10   29 1    
    25   11   13 1    
    26   11   30 1    
    27   12   14 1    
    28   12   18 1    
    29   12   31 1    
    30   13   32 1    
    31   13   33 1    
    32   13   34 1    
    33   14   35 1    
    34   14   36 1    
    35   14   37 1    
    36   15   21 1    
    37   15   38 1    
    38   15   39 1    
    39   15   40 1    
    40   16   22 1    
    41   16   41 1    
    42   16   42 1    
    43   16   43 1    
    44   17   23 1    
    45   17   44 1    
    46   17   45 1    
    47   17   46 1    
@<TRIPOS>SUBSTRUCTURE
     1 UNK         1 GROUP             0       ****    0 ROOT    
@<TRIPOS>MOLECULE
ZINC00501166_30
46   47    1
SMALL
USER_CHARGES


@<TRIPOS>ATOM
      1 C1         -6.7423   -3.9449   39.5380 C.ar      1 UNK        -0.1150 
      2 C2         -7.8818   -5.9075   38.6485 C.ar      1 UNK        -0.1150 
      3 C3         -6.9998   -5.3296   39.5876 C.ar      1 UNK        -0.1150 
      4 C4         -7.3198   -3.1376   38.5293 C.ar      1 UNK         0.0850 
      5 C5         -8.4599   -5.1222   37.6231 C.ar      1 UNK         0.0850 
      6 C6         -8.1661   -3.7403   37.5719 C.ar      1 UNK         0.0850 
      7 C7         -5.5025  -10.0981   39.6306 C.2       1 UNK         0.4700 
      8 C8         -6.3944   -6.1525   40.6900 C.2       1 UNK         0.6150 
      9 C9         -5.7751   -9.7062   41.0809 C.3       1 UNK        -0.1200 
     10 C10        -5.2748   -7.6721   39.0202 C.3       1 UNK        -0.0500 
     11 C11        -5.8467   -9.0349   38.5785 C.3       1 UNK        -0.0600 
     12 C12        -5.3184   -8.2650   41.4197 C.3       1 UNK         0.0100 
     13 C13        -5.3781   -9.4270   37.1656 C.3       1 UNK        -0.1800 
     14 C14        -3.8137   -8.1467   41.7352 C.3       1 UNK        -0.1800 
     15 C15        -6.3391   -1.1330   39.4227 C.3       1 UNK         0.1100 
     16 C16        -9.6107   -7.0130   36.6785 C.3       1 UNK         0.1100 
     17 C17        -7.9939   -2.9631   35.3863 C.3       1 UNK         0.1100 
     18 N18        -5.7377   -7.3029   40.3744 N.am      1 UNK        -0.1400 
     19 O19        -5.0617  -11.2065   39.3357 O.2       1 UNK        -0.4700 
     20 O20        -6.5212   -5.7552   41.8471 O.2       1 UNK        -0.5000 
     21 O21        -7.0987   -1.7808   38.4136 O.3       1 UNK        -0.2850 
     22 O22        -9.3043   -5.6274   36.6559 O.3       1 UNK        -0.2850 
     23 O23        -8.7315   -2.9618   36.5958 O.3       1 UNK        -0.2850 
     24 H24        -6.0933   -3.5233   40.2911 H         1 UNK         0.1150 
     25 H25        -8.1010   -6.9599   38.7329 H         1 UNK         0.1150 
     26 H26        -6.8491   -9.7970   41.2434 H         1 UNK         0.0600 
     27 H27        -5.2985  -10.4270   41.7455 H         1 UNK         0.0600 
     28 H28        -4.1855   -7.7156   39.0218 H         1 UNK         0.0600 
     29 H29        -5.5004   -6.9175   38.2687 H         1 UNK         0.0600 
     30 H30        -6.9339   -8.9666   38.5590 H         1 UNK         0.0600 
     31 H31        -5.8323   -8.0269   42.3533 H         1 UNK         0.0600 
     32 H32        -4.2926   -9.5242   37.1188 H         1 UNK         0.0600 
     33 H33        -5.6801   -8.6827   36.4286 H         1 UNK         0.0600 
     34 H34        -5.8066  -10.3823   36.8586 H         1 UNK         0.0600 
     35 H35        -3.1847   -8.4757   40.9082 H         1 UNK         0.0600 
     36 H36        -3.5518   -8.7587   42.5990 H         1 UNK         0.0600 
     37 H37        -3.5419   -7.1179   41.9757 H         1 UNK         0.0600 
     38 H38        -6.2980   -0.0646   39.2108 H         1 UNK         0.0300 
     39 H39        -5.3133   -1.5024   39.4499 H         1 UNK         0.0300 
     40 H40        -6.7951   -1.2558   40.4061 H         1 UNK         0.0300 
     41 H41       -10.2759   -7.2452   35.8470 H         1 UNK         0.0300 
     42 H42       -10.1245   -7.2926   37.5993 H         1 UNK         0.0300 
     43 H43        -8.7134   -7.6223   36.5623 H         1 UNK         0.0300 
     44 H44        -8.4779   -2.3069   34.6633 H         1 UNK         0.0300 
     45 H45        -7.9424   -3.9619   34.9512 H         1 UNK         0.0300 
     46 H46        -6.9785   -2.5970   35.5447 H         1 UNK         0.0300 
@<TRIPOS>BOND
     1    1    3 ar   
     2    1    4 ar   
     3    1   24 1    
     4    2    3 ar   
     5    2    5 ar   
     6    2   25 1    
     7    3    8 1    
     8    4    6 ar   
     9    4   21 1    
    10    5    6 ar   
    11    5   22 1    
    12    6   23 1    
    13    7    9 1    
    14    7   11 1    
    15    7   19 2    
    16    8   18 am   BACKBONE|DICT|INTERRES
    17    8   20 2    
    18    9   12 1    
    19    9   26 1    
    20    9   27 1    
    21   10   11 1    
    22   10   18 1    
    23   10   28 1    
    24   10   29 1    
    25   11   13 1    
    26   11   30 1    
    27   12   14 1    
    28   12   18 1    
    29   12   31 1    
    30   13   32 1    
    31   13   33 1    
    32   13   34 1    
    33   14   35 1    
    34   14   36 1    
    35   14   37 1    
    36   15   21 1    
    37   15   38 1    
    38   15   39 1    
    39   15   40 1    
    40   16   22 1    
    41   16   41 1    
    42   16   42 1    
    43   16   43 1    
    44   17   23 1    
    45   17   44 1    
    46   17   45 1    
    47   17   46 1    
@<TRIPOS>SUBSTRUCTURE
     1 UNK         1 GROUP             0       ****    0 ROOT    
@<TRIPOS>MOLECULE
ZINC00524497_281
38   39    1
SMALL
USER_CHARGES


@<TRIPOS>ATOM
      1 C1        -10.4901   -7.8606   39.1711 C.ar      1 UNK        -0.1150 
      2 C2         -8.9842  -13.2908   36.4264 C.ar      1 UNK        -0.1150 
      3 C3        -11.0878   -7.1617   38.1063 C.ar      1 UNK        -0.1150 
      4 C4         -8.8154  -14.0071   35.2253 C.ar      1 UNK        -0.1150 
      5 C5        -11.4668   -9.9316   38.3556 C.ar      1 UNK        -0.1150 
      6 C6         -8.0219  -15.1532   37.6667 C.ar      1 UNK        -0.1150 
      7 C7        -10.6634   -9.2538   39.3010 C.ar      1 UNK        -0.1150 
      8 C8         -8.5837  -13.8593   37.6588 C.ar      1 UNK         0.2000 
      9 C9        -11.8763   -7.8447   37.1479 C.ar      1 UNK         0.0850 
     10 C10       -12.0678   -9.2397   37.2749 C.ar      1 UNK         0.0850 
     11 C11        -8.2485  -15.2945   35.2420 C.ar      1 UNK         0.2200 
     12 C12        -7.8515  -15.8698   36.4658 C.ar      1 UNK         0.1800 
     13 C13        -9.5509  -11.3674   40.2626 C.2       1 UNK        -0.1150 
     14 C14        -9.1617  -11.8850   39.0809 C.2       1 UNK        -0.0970 
     15 C15       -10.0017   -9.9669   40.4358 C.2       1 UNK         0.5850 
     16 C16       -12.3329   -5.8195   35.9329 C.3       1 UNK         0.1100 
     17 C17       -13.0660  -11.2543   36.4120 C.3       1 UNK         0.1100 
     18 N18        -8.7353  -13.1911   38.8826 N.pl3     1 UNK        -0.5717 
     19 O19        -9.8013   -9.3934   41.5052 O.2       1 UNK        -0.4700 
     20 O20       -12.4852   -7.2233   36.0770 O.3       1 UNK        -0.2850 
     21 O21       -12.8458   -9.8553   36.3158 O.3       1 UNK        -0.2850 
     22 F22        -8.0920  -15.9722   34.0803 F         1 UNK        -0.2200 
     23 Cl23       -7.1583  -17.4508   36.5078 Cl        1 UNK        -0.1800 
     24 H24        -9.8902   -7.3212   39.8915 H         1 UNK         0.1150 
     25 H25        -9.4310  -12.3098   36.3748 H         1 UNK         0.1150 
     26 H26       -10.9228   -6.0974   38.0470 H         1 UNK         0.1150 
     27 H27        -9.1216  -13.5718   34.2857 H         1 UNK         0.1150 
     28 H28       -11.6215  -10.9919   38.4781 H         1 UNK         0.1150 
     29 H29        -7.7098  -15.6099   38.5938 H         1 UNK         0.1150 
     30 H30        -9.5298  -11.9718   41.1566 H         1 UNK         0.1150 
     31 H31        -9.1472  -11.2721   38.1914 H         1 UNK         0.1150 
     32 H32       -12.8806   -5.4882   35.0506 H         1 UNK         0.0300 
     33 H33       -11.2868   -5.5440   35.7934 H         1 UNK         0.0300 
     34 H34       -12.7384   -5.2838   36.7923 H         1 UNK         0.0300 
     35 H35       -13.6943  -11.5760   35.5816 H         1 UNK         0.0300 
     36 H36       -13.5843  -11.5138   37.3362 H         1 UNK         0.0300 
     37 H37       -12.1299  -11.8112   36.3513 H         1 UNK         0.0300 
     38 H38        -8.5411  -13.7428   39.7083 H         1 UNK         0.3537 
@<TRIPOS>BOND
     1    1    3 ar   
     2    1    7 ar   
     3    1   24 1    
     4    2    4 ar   
     5    2    8 ar   
     6    2   25 1    
     7    3    9 ar   
     8    3   26 1    
     9    4   11 ar   
    10    4   27 1    
    11    5    7 ar   
    12    5   10 ar   
    13    5   28 1    
    14    6    8 ar   
    15    6   12 ar   
    16    6   29 1    
    17    7   15 1    
    18    8   18 1    
    19    9   10 ar   
    20    9   20 1    
    21   10   21 1    
    22   11   12 ar   
    23   11   22 1    
    24   12   23 1    
    25   13   14 2    
    26   13   15 1    
    27   13   30 1    
    28   14   18 1    
    29   14   31 1    
    30   15   19 2    
    31   16   20 1    
    32   16   32 1    
    33   16   33 1    
    34   16   34 1    
    35   17   21 1    
    36   17   35 1    
    37   17   36 1    
    38   17   37 1    
    39   18   38 1    
@<TRIPOS>SUBSTRUCTURE
     1 UNK         1 GROUP             0       ****    0 ROOT    
@<TRIPOS>MOLECULE
ZINC00626282_46
49   51    1
SMALL
USER_CHARGES


@<TRIPOS>ATOM
      1 C1         -4.8026   -6.8888   38.0856 C.ar      1 UNK        -0.1150 
      2 C2         -4.5011   -7.3791   36.8019 C.ar      1 UNK        -0.1150 
      3 C3         -7.7682   -5.9048   38.6866 C.ar      1 UNK        -0.1150 
      4 C4         -6.6922   -3.8883   39.5307 C.ar      1 UNK        -0.1150 
      5 C5         -5.0911   -9.6240   37.5130 C.ar      1 UNK        -0.1150 
      6 C6         -6.8874   -5.2834   39.5996 C.ar      1 UNK        -0.1150 
      7 C7         -5.3927   -9.1355   38.8014 C.ar      1 UNK        -0.1150 
      8 C8         -5.2930   -7.7542   39.0946 C.ar      1 UNK        -0.0383 
      9 C9         -4.6518   -8.7437   36.4952 C.ar      1 UNK         0.0850 
     10 C10        -8.4034   -5.1553   37.6685 C.ar      1 UNK         0.0850 
     11 C11        -7.3332   -3.1150   38.5336 C.ar      1 UNK         0.0850 
     12 C12        -8.1794   -3.7613   37.6052 C.ar      1 UNK         0.0850 
     13 C13        -6.2134   -6.0737   40.6916 C.2       1 UNK         0.6150 
     14 C14        -5.7768  -10.0979   39.9030 C.3       1 UNK        -0.0050 
     15 C15        -5.1123   -9.6455   41.2036 C.3       1 UNK        -0.1200 
     16 C16        -5.4976   -8.1985   41.5663 C.3       1 UNK        -0.0500 
     17 C17        -4.4904  -10.5026   34.8697 C.3       1 UNK         0.1100 
     18 C18        -9.3568   -7.1235   36.6708 C.3       1 UNK         0.1100 
     19 C19        -6.3623   -1.0704   39.3451 C.3       1 UNK         0.1100 
     20 C20        -8.1021   -2.9928   35.4115 C.3       1 UNK         0.1100 
     21 N21        -5.6476   -7.2841   40.4115 N.am      1 UNK        -0.0317 
     22 O22        -6.1848   -5.5828   41.8223 O.2       1 UNK        -0.5000 
     23 O23        -4.3397   -9.1326   35.2111 O.3       1 UNK        -0.2850 
     24 O24        -9.2393   -5.7097   36.7210 O.3       1 UNK        -0.2850 
     25 O25        -7.1740   -1.7509   38.4002 O.3       1 UNK        -0.2850 
     26 O26        -8.8061   -3.0162   36.6405 O.3       1 UNK        -0.2850 
     27 H27        -4.6583   -5.8353   38.2744 H         1 UNK         0.1150 
     28 H28        -4.1472   -6.6999   36.0401 H         1 UNK         0.1150 
     29 H29        -7.9330   -6.9675   38.7759 H         1 UNK         0.1150 
     30 H30        -6.0409   -3.4317   40.2610 H         1 UNK         0.1150 
     31 H31        -5.1891  -10.6826   37.3290 H         1 UNK         0.1150 
     32 H32        -6.8625  -10.1127   40.0065 H         1 UNK         0.0600 
     33 H33        -5.4605  -11.1114   39.6532 H         1 UNK         0.0600 
     34 H34        -5.3653  -10.3213   42.0213 H         1 UNK         0.0600 
     35 H35        -4.0295   -9.7047   41.0822 H         1 UNK         0.0600 
     36 H36        -6.4470   -8.2308   42.1055 H         1 UNK         0.0600 
     37 H37        -4.7652   -7.7900   42.2650 H         1 UNK         0.0600 
     38 H38        -4.2167  -10.6451   33.8243 H         1 UNK         0.0300 
     39 H39        -5.5238  -10.8312   34.9875 H         1 UNK         0.0300 
     40 H40        -3.8374  -11.1369   35.4704 H         1 UNK         0.0300 
     41 H41        -9.9874   -7.4009   35.8262 H         1 UNK         0.0300 
     42 H42        -9.8252   -7.5160   37.5740 H         1 UNK         0.0300 
     43 H43        -8.3859   -7.6008   36.5280 H         1 UNK         0.0300 
     44 H44        -6.3583   -0.0056   39.1132 H         1 UNK         0.0300 
     45 H45        -5.3295   -1.4192   39.3078 H         1 UNK         0.0300 
     46 H46        -6.7482   -1.1851   40.3590 H         1 UNK         0.0300 
     47 H47        -8.6556   -2.3958   34.6871 H         1 UNK         0.0300 
     48 H48        -7.9819   -3.9954   34.9988 H         1 UNK         0.0300 
     49 H49        -7.1154   -2.5438   35.5336 H         1 UNK         0.0300 
@<TRIPOS>BOND
     1    1    2 ar   
     2    1    8 ar   
     3    1   27 1    
     4    2    9 ar   
     5    2   28 1    
     6    3    6 ar   
     7    3   10 ar   
     8    3   29 1    
     9    4    6 ar   
    10    4   11 ar   
    11    4   30 1    
    12    5    7 ar   
    13    5    9 ar   
    14    5   31 1    
    15    6   13 1    
    16    7    8 ar   
    17    7   14 1    
    18    8   21 1    
    19    9   23 1    
    20   10   12 ar   
    21   10   24 1    
    22   11   12 ar   
    23   11   25 1    
    24   12   26 1    
    25   13   21 am   BACKBONE|DICT|INTERRES
    26   13   22 2    
    27   14   15 1    
    28   14   32 1    
    29   14   33 1    
    30   15   16 1    
    31   15   34 1    
    32   15   35 1    
    33   16   21 1    
    34   16   36 1    
    35   16   37 1    
    36   17   23 1    
    37   17   38 1    
    38   17   39 1    
    39   17   40 1    
    40   18   24 1    
    41   18   41 1    
    42   18   42 1    
    43   18   43 1    
    44   19   25 1    
    45   19   44 1    
    46   19   45 1    
    47   19   46 1    
    48   20   26 1    
    49   20   47 1    
    50   20   48 1    
    51   20   49 1    
@<TRIPOS>SUBSTRUCTURE
     1 UNK         1 GROUP             0       ****    0 ROOT    
@<TRIPOS>MOLECULE
ZINC00669475_21
48   50    1
SMALL
USER_CHARGES


@<TRIPOS>ATOM
      1 C1         -4.3932   -6.5331   38.4346 C.ar      1 UNK        -0.1150 
      2 C2         -3.8458   -6.8390   37.1747 C.ar      1 UNK        -0.1150 
      3 C3         -6.7496   -3.8618   39.5269 C.ar      1 UNK        -0.1150 
      4 C4         -7.6907   -5.9256   38.6385 C.ar      1 UNK        -0.1150 
      5 C5         -4.6062   -9.1366   37.4051 C.ar      1 UNK        -0.1150 
      6 C6         -6.8983   -5.2621   39.6009 C.ar      1 UNK        -0.1150 
      7 C7         -5.1584   -8.8406   38.6691 C.ar      1 UNK        -0.1150 
      8 C8         -5.0827   -7.5196   39.1877 C.ar      1 UNK        -0.0383 
      9 C9         -7.3403   -3.1260   38.4723 C.ar      1 UNK         0.0850 
     10 C10        -8.2836   -5.2125   37.5697 C.ar      1 UNK         0.0850 
     11 C11        -8.0888   -3.8126   37.4905 C.ar      1 UNK         0.0850 
     12 C12        -3.9586   -8.1392   36.6560 C.ar      1 UNK         0.2200 
     13 C13        -6.2650   -6.0207   40.7400 C.2       1 UNK         0.6150 
     14 C14        -5.7975   -9.9716   39.4600 C.3       1 UNK        -0.0050 
     15 C15        -6.4204   -9.5255   40.7896 C.3       1 UNK        -0.1200 
     16 C16        -5.6488   -8.3578   41.4295 C.3       1 UNK         0.0100 
     17 C17        -6.1561   -8.1160   42.8704 C.3       1 UNK        -0.1800 
     18 C18        -6.5417   -1.0330   39.3466 C.3       1 UNK         0.1100 
     19 C19        -9.2383   -7.2168   36.6387 C.3       1 UNK         0.1100 
     20 C20        -8.0034   -3.2618   35.2205 C.3       1 UNK         0.1100 
     21 N21        -5.6625   -7.2199   40.4725 N.am      1 UNK        -0.0317 
     22 O22        -6.2666   -5.4878   41.8498 O.2       1 UNK        -0.5000 
     23 O23        -7.2177   -1.7589   38.3310 O.3       1 UNK        -0.2850 
     24 O24        -9.0576   -5.8095   36.5952 O.3       1 UNK        -0.2850 
     25 O25        -8.6511   -3.0874   36.4704 O.3       1 UNK        -0.2850 
     26 F26        -3.4331   -8.4349   35.4447 F         1 UNK        -0.2200 
     27 H27        -4.2777   -5.5262   38.8091 H         1 UNK         0.1150 
     28 H28        -3.3353   -6.0779   36.6034 H         1 UNK         0.1150 
     29 H29        -6.1682   -3.3725   40.2940 H         1 UNK         0.1150 
     30 H30        -7.8239   -6.9920   38.7344 H         1 UNK         0.1150 
     31 H31        -4.6656  -10.1374   37.0033 H         1 UNK         0.1150 
     32 H32        -6.5427  -10.4790   38.8461 H         1 UNK         0.0600 
     33 H33        -5.0148  -10.7033   39.6644 H         1 UNK         0.0600 
     34 H34        -7.4463   -9.2005   40.6085 H         1 UNK         0.0600 
     35 H35        -6.4897  -10.3791   41.4651 H         1 UNK         0.0600 
     36 H36        -4.6038   -8.6578   41.5272 H         1 UNK         0.0600 
     37 H37        -7.1973   -7.7916   42.8899 H         1 UNK         0.0600 
     38 H38        -5.5555   -7.3672   43.3886 H         1 UNK         0.0600 
     39 H39        -6.0910   -9.0282   43.4639 H         1 UNK         0.0600 
     40 H40        -6.5701    0.0300   39.1078 H         1 UNK         0.0300 
     41 H41        -5.4936   -1.3271   39.4157 H         1 UNK         0.0300 
     42 H42        -7.0205   -1.1652   40.3180 H         1 UNK         0.0300 
     43 H43        -9.8487   -7.5262   35.7903 H         1 UNK         0.0300 
     44 H44        -9.7584   -7.5233   37.5471 H         1 UNK         0.0300 
     45 H45        -8.2859   -7.7446   36.5689 H         1 UNK         0.0300 
     46 H46        -8.4176   -2.5597   34.4974 H         1 UNK         0.0300 
     47 H47        -8.1431   -4.2670   34.8231 H         1 UNK         0.0300 
     48 H48        -6.9334   -3.0649   35.3019 H         1 UNK         0.0300 
@<TRIPOS>BOND
     1    1    2 ar   
     2    1    8 ar   
     3    1   27 1    
     4    2   12 ar   
     5    2   28 1    
     6    3    6 ar   
     7    3    9 ar   
     8    3   29 1    
     9    4    6 ar   
    10    4   10 ar   
    11    4   30 1    
    12    5    7 ar   
    13    5   12 ar   
    14    5   31 1    
    15    6   13 1    
    16    7    8 ar   
    17    7   14 1    
    18    8   21 1    
    19    9   11 ar   
    20    9   23 1    
    21   10   11 ar   
    22   10   24 1    
    23   11   25 1    
    24   12   26 1    
    25   13   21 am   BACKBONE|DICT|INTERRES
    26   13   22 2    
    27   14   15 1    
    28   14   32 1    
    29   14   33 1    
    30   15   16 1    
    31   15   34 1    
    32   15   35 1    
    33   16   17 1    
    34   16   21 1    
    35   16   36 1    
    36   17   37 1    
    37   17   38 1    
    38   17   39 1    
    39   18   23 1    
    40   18   40 1    
    41   18   41 1    
    42   18   42 1    
    43   19   24 1    
    44   19   43 1    
    45   19   44 1    
    46   19   45 1    
    47   20   25 1    
    48   20   46 1    
    49   20   47 1    
    50   20   48 1    
@<TRIPOS>SUBSTRUCTURE
     1 UNK         1 GROUP             0       ****    0 ROOT    
@<TRIPOS>MOLECULE
ZINC00669477_1
48   50    1
SMALL
USER_CHARGES


@<TRIPOS>ATOM
      1 C1         -4.6405   -6.7435   38.1965 C.ar      1 UNK        -0.1150 
      2 C2         -4.2089   -7.1651   36.9251 C.ar      1 UNK        -0.1150 
      3 C3         -7.7246   -5.8980   38.6528 C.ar      1 UNK        -0.1150 
      4 C4         -6.7043   -3.8698   39.5386 C.ar      1 UNK        -0.1150 
      5 C5         -4.7810   -9.4573   37.4948 C.ar      1 UNK        -0.1150 
      6 C6         -6.8853   -5.2670   39.5977 C.ar      1 UNK        -0.1150 
      7 C7         -5.2161   -9.0447   38.7718 C.ar      1 UNK        -0.1150 
      8 C8         -5.1856   -7.6681   39.1259 C.ar      1 UNK        -0.0383 
      9 C9         -8.3349   -5.1542   37.6153 C.ar      1 UNK         0.0850 
     10 C10        -7.3143   -3.1035   38.5172 C.ar      1 UNK         0.0850 
     11 C11        -8.1157   -3.7583   37.5557 C.ar      1 UNK         0.0850 
     12 C12        -4.2883   -8.5212   36.5699 C.ar      1 UNK         0.2200 
     13 C13        -6.2372   -6.0536   40.7072 C.2       1 UNK         0.6150 
     14 C14        -5.6654  -10.1134   39.7565 C.3       1 UNK        -0.0050 
     15 C15        -6.2369   -9.5523   41.0651 C.3       1 UNK        -0.1200 
     16 C16        -5.5521   -8.2494   41.5131 C.3       1 UNK         0.0100 
     17 C17        -4.0895   -8.4565   41.9522 C.3       1 UNK        -0.1800 
     18 C18        -9.3439   -7.1199   36.6621 C.3       1 UNK         0.1100 
     19 C19        -6.4079   -1.0469   39.3718 C.3       1 UNK         0.1100 
     20 C20        -8.0083   -3.0698   35.3336 C.3       1 UNK         0.1100 
     21 N21        -5.6489   -7.2542   40.4269 N.am      1 UNK        -0.0317 
     22 O22        -6.2396   -5.5632   41.8380 O.2       1 UNK        -0.5000 
     23 O23        -9.1426   -5.7147   36.6468 O.3       1 UNK        -0.2850 
     24 O24        -7.1650   -1.7379   38.3901 O.3       1 UNK        -0.2850 
     25 O25        -8.7047   -3.0136   36.5666 O.3       1 UNK        -0.2850 
     26 F26        -3.8754   -8.9282   35.3475 F         1 UNK        -0.2200 
     27 H27        -4.5465   -5.6953   38.4400 H         1 UNK         0.1150 
     28 H28        -3.8117   -6.4499   36.2201 H         1 UNK         0.1150 
     29 H29        -7.8778   -6.9628   38.7350 H         1 UNK         0.1150 
     30 H30        -6.0854   -3.4066   40.2925 H         1 UNK         0.1150 
     31 H31        -4.8084  -10.5011   37.2188 H         1 UNK         0.1150 
     32 H32        -6.3926  -10.7734   39.2820 H         1 UNK         0.0600 
     33 H33        -4.7937  -10.7280   39.9852 H         1 UNK         0.0600 
     34 H34        -7.2942   -9.3331   40.9076 H         1 UNK         0.0600 
     35 H35        -6.2046  -10.3084   41.8505 H         1 UNK         0.0600 
     36 H36        -6.0981   -7.9194   42.4000 H         1 UNK         0.0600 
     37 H37        -3.4589   -8.8036   41.1332 H         1 UNK         0.0600 
     38 H38        -4.0216   -9.1897   42.7562 H         1 UNK         0.0600 
     39 H39        -3.6615   -7.5249   42.3243 H         1 UNK         0.0600 
     40 H40        -9.9803   -7.3995   35.8226 H         1 UNK         0.0300 
     41 H41        -9.8458   -7.4404   37.5759 H         1 UNK         0.0300 
     42 H42        -8.4019   -7.6600   36.5556 H         1 UNK         0.0300 
     43 H43        -6.4168    0.0194   39.1466 H         1 UNK         0.0300 
     44 H44        -5.3677   -1.3748   39.3747 H         1 UNK         0.0300 
     45 H45        -6.8326   -1.1759   40.3683 H         1 UNK         0.0300 
     46 H46        -8.5066   -2.4315   34.6044 H         1 UNK         0.0300 
     47 H47        -7.9823   -4.0824   34.9295 H         1 UNK         0.0300 
     48 H48        -6.9837   -2.7127   35.4468 H         1 UNK         0.0300 
@<TRIPOS>BOND
     1    1    2 ar   
     2    1    8 ar   
     3    1   27 1    
     4    2   12 ar   
     5    2   28 1    
     6    3    6 ar   
     7    3    9 ar   
     8    3   29 1    
     9    4    6 ar   
    10    4   10 ar   
    11    4   30 1    
    12    5    7 ar   
    13    5   12 ar   
    14    5   31 1    
    15    6   13 1    
    16    7    8 ar   
    17    7   14 1    
    18    8   21 1    
    19    9   11 ar   
    20    9   23 1    
    21   10   11 ar   
    22   10   24 1    
    23   11   25 1    
    24   12   26 1    
    25   13   21 am   BACKBONE|DICT|INTERRES
    26   13   22 2    
    27   14   15 1    
    28   14   32 1    
    29   14   33 1    
    30   15   16 1    
    31   15   34 1    
    32   15   35 1    
    33   16   17 1    
    34   16   21 1    
    35   16   36 1    
    36   17   37 1    
    37   17   38 1    
    38   17   39 1    
    39   18   23 1    
    40   18   40 1    
    41   18   41 1    
    42   18   42 1    
    43   19   24 1    
    44   19   43 1    
    45   19   44 1    
    46   19   45 1    
    47   20   25 1    
    48   20   46 1    
    49   20   47 1    
    50   20   48 1    
@<TRIPOS>SUBSTRUCTURE
     1 UNK         1 GROUP             0       ****    0 ROOT    
@<TRIPOS>MOLECULE
ZINC00720370_137
51   53    1
SMALL
USER_CHARGES


@<TRIPOS>ATOM
      1 C1        -10.5101  -20.7053   36.1050 C.ar      1 UNK        -0.2222 
      2 C2        -10.3853  -22.0815   36.3664 C.ar      1 UNK        -0.0888 
      3 C3        -11.4671  -19.9314   36.7939 C.ar      1 UNK        -0.2243 
      4 C4        -11.2206  -22.6839   37.3229 C.ar      1 UNK        -0.3541 
      5 C5        -14.4256  -12.9305   38.9885 C.ar      1 UNK        -0.1150 
      6 C6        -16.3236  -14.3110   38.3506 C.ar      1 UNK        -0.1150 
      7 C7        -12.3314  -20.5033   37.7636 C.ar      1 UNK         0.1233 
      8 C8        -14.9587  -14.1991   38.6912 C.ar      1 UNK        -0.1150 
      9 C9        -13.3959  -20.0264   38.6270 C.ar      1 UNK        -0.1749 
     10 C10       -12.1707  -21.9024   38.0039 C.ar      1 UNK         0.2860 
     11 C11       -15.2179  -11.7695   38.9279 C.ar      1 UNK         0.0850 
     12 C12       -17.1416  -13.1584   38.2627 C.ar      1 UNK         0.0850 
     13 C13       -16.5799  -11.8848   38.5293 C.ar      1 UNK         0.0850 
     14 C14       -13.8236  -21.1146   39.3493 C.ar      1 UNK        -0.0293 
     15 C15       -14.0817  -15.4115   38.7882 C.2       1 UNK         0.6150 
     16 C16       -14.8891  -21.1956   40.3932 C.3       1 UNK        -0.0650 
     17 C17       -15.3276   -9.5013   39.7403 C.3       1 UNK         0.1100 
     18 C18       -19.0902  -14.4650   37.7113 C.3       1 UNK         0.1100 
     19 C19       -17.5689  -10.3793   37.0456 C.3       1 UNK         0.1100 
     20 C20       -13.9901  -18.6498   38.7917 C.3       1 UNK        -0.0641 
     21 C21       -13.5578  -17.6037   37.7520 C.3       1 UNK         0.0800 
     22 N22       -13.0946  -22.2258   38.9711 N.pl3     1 UNK        -0.4786 
     23 N23       -14.3206  -16.3677   37.8822 N.am      1 UNK        -0.5000 
     24 O24       -13.1723  -15.4765   39.6111 O.2       1 UNK        -0.5000 
     25 O25       -14.5687  -10.5933   39.2426 O.3       1 UNK        -0.2850 
     26 O26       -18.4803  -13.2016   37.9273 O.3       1 UNK        -0.2850 
     27 O27       -17.3759  -10.7753   38.3945 O.3       1 UNK        -0.2850 
     28 H28        -9.8650  -20.2381   35.3736 H         1 UNK         0.1489 
     29 H29        -9.6495  -22.6707   35.8367 H         1 UNK         0.1359 
     30 H30       -11.5240  -18.8811   36.5668 H         1 UNK         0.1699 
     31 H31       -11.1285  -23.7385   37.5324 H         1 UNK         0.1796 
     32 H32       -13.3875  -12.8436   39.2784 H         1 UNK         0.1150 
     33 H33       -16.7315  -15.2923   38.1672 H         1 UNK         0.1150 
     34 H34       -15.8716  -21.0161   39.9560 H         1 UNK         0.0600 
     35 H35       -14.9087  -22.1740   40.8736 H         1 UNK         0.0600 
     36 H36       -14.7265  -20.4470   41.1694 H         1 UNK         0.0600 
     37 H37       -15.7877   -8.9370   38.9292 H         1 UNK         0.0300 
     38 H38       -14.6633   -8.8200   40.2713 H         1 UNK         0.0300 
     39 H39       -16.0965   -9.8225   40.4447 H         1 UNK         0.0300 
     40 H40       -20.1463  -14.3187   37.4852 H         1 UNK         0.0300 
     41 H41       -19.0286  -15.0961   38.5991 H         1 UNK         0.0300 
     42 H42       -18.6418  -14.9841   36.8632 H         1 UNK         0.0300 
     43 H43       -18.1437   -9.4538   37.0186 H         1 UNK         0.0300 
     44 H44       -18.1172  -11.1277   36.4730 H         1 UNK         0.0300 
     45 H45       -16.6135  -10.1947   36.5519 H         1 UNK         0.0300 
     46 H46       -13.7447  -18.2764   39.7870 H         1 UNK         0.0600 
     47 H47       -15.0773  -18.7327   38.7694 H         1 UNK         0.0600 
     48 H48       -12.4937  -17.3834   37.8551 H         1 UNK         0.0600 
     49 H49       -13.7188  -17.9886   36.7446 H         1 UNK         0.0600 
     50 H50       -13.2276  -23.1427   39.3689 H         1 UNK         0.3577 
     51 H51       -15.0478  -16.1904   37.2086 H         1 UNK         0.3000 
@<TRIPOS>BOND
     1    1    2 ar   
     2    1    3 ar   
     3    1   28 1    
     4    2    4 ar   
     5    2   29 1    
     6    3    7 ar   
     7    3   30 1    
     8    4   10 ar   
     9    4   31 1    
    10    5    8 ar   
    11    5   11 ar   
    12    5   32 1    
    13    6    8 ar   
    14    6   12 ar   
    15    6   33 1    
    16    7    9 ar   
    17    7   10 ar   
    18    8   15 1    
    19    9   14 ar   
    20    9   20 1    
    21   10   22 ar   
    22   11   13 ar   
    23   11   25 1    
    24   12   13 ar   
    25   12   26 1    
    26   13   27 1    
    27   14   16 1    
    28   14   22 ar   
    29   15   23 am   BACKBONE|DICT|INTERRES
    30   15   24 2    
    31   16   34 1    
    32   16   35 1    
    33   16   36 1    
    34   17   25 1    
    35   17   37 1    
    36   17   38 1    
    37   17   39 1    
    38   18   26 1    
    39   18   40 1    
    40   18   41 1    
    41   18   42 1    
    42   19   27 1    
    43   19   43 1    
    44   19   44 1    
    45   19   45 1    
    46   20   21 1    
    47   20   46 1    
    48   20   47 1    
    49   21   23 1    
    50   21   48 1    
    51   21   49 1    
    52   22   50 1    
    53   23   51 1    
@<TRIPOS>SUBSTRUCTURE
     1 UNK         1 GROUP             0       ****    0 ROOT    
@<TRIPOS>MOLECULE
ZINC00781931_9
53   55    1
SMALL
USER_CHARGES


@<TRIPOS>ATOM
      1 C1         -7.5339   -4.3825   39.5753 C.ar      1 UNK        -0.1150 
      2 C2         -7.7790   -6.4556   38.3279 C.ar      1 UNK        -0.1150 
      3 C3         -7.3268   -5.7711   39.4727 C.ar      1 UNK         0.0000 
      4 C4         -8.1851   -3.6586   38.5460 C.ar      1 UNK         0.0850 
      5 C5         -8.4243   -5.7584   37.2808 C.ar      1 UNK         0.0850 
      6 C6         -8.6144   -4.3596   37.3805 C.ar      1 UNK         0.0850 
      7 C7         -6.6522   -6.4882   40.5519 C.2       1 UNK         0.5614 
      8 C8         -5.8577   -8.1421   41.5903 C.2       1 UNK         0.7139 
      9 C9         -4.8487   -9.8737   39.1672 C.2       1 UNK         0.5000 
     10 C10        -5.0886  -11.7934   35.5248 C.3       1 UNK        -0.1200 
     11 C11        -4.0281  -10.7872   35.0491 C.3       1 UNK        -0.1200 
     12 C12        -6.4085  -11.1281   35.9552 C.3       1 UNK        -0.1200 
     13 C13        -3.4920   -9.8539   36.1457 C.3       1 UNK        -0.1200 
     14 C14        -6.4398  -10.6722   37.4295 C.3       1 UNK        -0.0500 
     15 C15        -4.5934   -9.0597   36.8673 C.3       1 UNK        -0.0500 
     16 C16        -8.0279   -1.6101   39.8210 C.3       1 UNK         0.1100 
     17 C17        -8.7042   -7.7720   35.9845 C.3       1 UNK         0.1100 
     18 C18        -8.9293   -2.4361   35.9566 C.3       1 UNK         0.1100 
     19 C19        -5.7100  -10.5363   40.2596 C.3       1 UNK         0.0475 
     20 N20        -6.0414   -5.9887   41.6307 N.2       1 UNK        -0.3751 
     21 N21        -5.5273   -7.0709   42.3117 N.2       1 UNK        -0.3751 
     22 N22        -5.2753   -9.8857   37.8774 N.am      1 UNK        -0.1400 
     23 O23        -3.8185   -9.2939   39.5096 O.2       1 UNK        -0.5000 
     24 O24        -6.6072   -7.8452   40.4975 O.3       1 UNK        -0.3726 
     25 O25        -8.4375   -2.3046   38.6510 O.3       1 UNK        -0.2850 
     26 O26        -8.8822   -6.3720   36.1316 O.3       1 UNK        -0.2850 
     27 O27        -9.2537   -3.7734   36.3056 O.3       1 UNK        -0.2850 
     28 S28        -5.4972   -9.8348   41.9316 S.3       1 UNK        -0.3200 
     29 H29        -7.1846   -3.8925   40.4714 H         1 UNK         0.1150 
     30 H30        -7.6155   -7.5194   38.2648 H         1 UNK         0.1150 
     31 H31        -5.3003  -12.4678   34.6938 H         1 UNK         0.0600 
     32 H32        -4.6932  -12.4226   36.3237 H         1 UNK         0.0600 
     33 H33        -3.1881  -11.3351   34.6198 H         1 UNK         0.0600 
     34 H34        -4.4365  -10.1896   34.2328 H         1 UNK         0.0600 
     35 H35        -6.6473  -10.3010   35.2857 H         1 UNK         0.0600 
     36 H36        -7.2189  -11.8447   35.8145 H         1 UNK         0.0600 
     37 H37        -2.9004  -10.4183   36.8684 H         1 UNK         0.0600 
     38 H38        -2.7974   -9.1501   35.6854 H         1 UNK         0.0600 
     39 H39        -7.3491  -10.1012   37.6197 H         1 UNK         0.0600 
     40 H40        -6.5177  -11.5843   38.0228 H         1 UNK         0.0600 
     41 H41        -4.1455   -8.1806   37.3357 H         1 UNK         0.0600 
     42 H42        -5.3045   -8.6451   36.1534 H         1 UNK         0.0600 
     43 H43        -8.3135   -0.5620   39.7330 H         1 UNK         0.0300 
     44 H44        -6.9451   -1.6451   39.9486 H         1 UNK         0.0300 
     45 H45        -8.5130   -2.0075   40.7136 H         1 UNK         0.0300 
     46 H46        -9.1148   -8.0875   35.0255 H         1 UNK         0.0300 
     47 H47        -9.2268   -8.3260   36.7653 H         1 UNK         0.0300 
     48 H48        -7.6476   -8.0402   35.9925 H         1 UNK         0.0300 
     49 H49        -9.1552   -2.2795   34.9019 H         1 UNK         0.0300 
     50 H50        -7.8702   -2.2170   36.0998 H         1 UNK         0.0300 
     51 H51        -9.5299   -1.7247   36.5235 H         1 UNK         0.0300 
     52 H52        -5.4665  -11.5974   40.2970 H         1 UNK         0.0600 
     53 H53        -6.7690  -10.4538   40.0189 H         1 UNK         0.0600 
@<TRIPOS>BOND
     1    1    3 ar   
     2    1    4 ar   
     3    1   29 1    
     4    2    3 ar   
     5    2    5 ar   
     6    2   30 1    
     7    3    7 1    
     8    4    6 ar   
     9    4   25 1    
    10    5    6 ar   
    11    5   26 1    
    12    6   27 1    
    13    7   20 2    
    14    7   24 1    
    15    8   21 2    
    16    8   24 1    
    17    8   28 1    
    18    9   19 1    
    19    9   22 am   BACKBONE|DICT|INTERRES
    20    9   23 2    
    21   10   11 1    
    22   10   12 1    
    23   10   31 1    
    24   10   32 1    
    25   11   13 1    
    26   11   33 1    
    27   11   34 1    
    28   12   14 1    
    29   12   35 1    
    30   12   36 1    
    31   13   15 1    
    32   13   37 1    
    33   13   38 1    
    34   14   22 1    
    35   14   39 1    
    36   14   40 1    
    37   15   22 1    
    38   15   41 1    
    39   15   42 1    
    40   16   25 1    
    41   16   43 1    
    42   16   44 1    
    43   16   45 1    
    44   17   26 1    
    45   17   46 1    
    46   17   47 1    
    47   17   48 1    
    48   18   27 1    
    49   18   49 1    
    50   18   50 1    
    51   18   51 1    
    52   19   28 1    
    53   19   52 1    
    54   19   53 1    
    55   20   21 1    
@<TRIPOS>SUBSTRUCTURE
     1 UNK         1 GROUP             0       ****    0 ROOT    
@<TRIPOS>MOLECULE
ZINC00793130_67
51   53    1
SMALL
USER_CHARGES


@<TRIPOS>ATOM
      1 C1         -8.7642   -6.5086   39.2701 C.ar      1 UNK        -0.1150 
      2 C2         -9.2788   -5.7201   38.2246 C.ar      1 UNK        -0.1150 
      3 C3         -9.9241   -8.4476   38.3748 C.ar      1 UNK        -0.1150 
      4 C4         -9.0663   -7.8829   39.3447 C.ar      1 UNK        -0.1150 
      5 C5        -10.1171   -6.2920   37.2359 C.ar      1 UNK         0.0850 
      6 C6        -10.4408   -7.6663   37.3116 C.ar      1 UNK         0.0850 
      7 C7         -7.0641  -11.4916   39.0744 C.2       1 UNK         0.1809 
      8 C8         -8.5337   -8.7006   40.4938 C.2       1 UNK         0.6150 
      9 C9         -6.8547  -11.9490   40.4742 C.3       1 UNK        -0.0721 
     10 C10        -6.8828  -13.3462   35.1036 C.3       1 UNK        -0.1200 
     11 C11        -7.0916  -14.2422   36.3347 C.3       1 UNK        -0.1200 
     12 C12        -5.9151  -12.1933   35.4127 C.3       1 UNK        -0.1200 
     13 C13        -7.5654  -13.4253   37.5490 C.3       1 UNK        -0.1200 
     14 C14        -6.3964  -11.3753   36.6224 C.3       1 UNK        -0.1200 
     15 C15        -6.5910  -12.2715   37.8688 C.3       1 UNK        -0.0121 
     16 C16        -7.5903  -10.8770   41.2879 C.3       1 UNK         0.4650 
     17 C17       -10.3687   -4.1911   36.0918 C.3       1 UNK         0.1100 
     18 C18       -11.5593   -9.5605   36.3376 C.3       1 UNK         0.1100 
     19 C19        -8.8099  -11.4608   42.0640 C.3       1 UNK         0.6171 
     20 N20        -7.6947  -10.3786   39.0050 N.2       1 UNK        -0.2833 
     21 N21        -8.0165   -9.9286   40.2475 N.am      1 UNK        -0.1934 
     22 O22        -8.5226   -8.2109   41.6239 O.2       1 UNK        -0.5000 
     23 O23        -6.6735  -10.2977   42.2076 O.3       1 UNK        -0.6936 
     24 O24       -10.6533   -5.5783   36.1837 O.3       1 UNK        -0.2850 
     25 O25       -11.2625   -8.1726   36.3254 O.3       1 UNK        -0.2850 
     26 F26        -8.4140  -12.4684   42.8434 F         1 UNK        -0.2057 
     27 F27        -9.3997  -10.5454   42.8313 F         1 UNK        -0.2057 
     28 F28        -9.7158  -11.9355   41.2069 F         1 UNK        -0.2057 
     29 H29        -8.1324   -6.0558   40.0215 H         1 UNK         0.1150 
     30 H30        -9.0155   -4.6744   38.2062 H         1 UNK         0.1150 
     31 H31       -10.1724   -9.4933   38.4639 H         1 UNK         0.1150 
     32 H32        -7.2767  -12.9423   40.6253 H         1 UNK         0.0600 
     33 H33        -5.7903  -11.9932   40.7065 H         1 UNK         0.0600 
     34 H34        -6.5013  -13.9394   34.2715 H         1 UNK         0.0600 
     35 H35        -7.8419  -12.9411   34.7773 H         1 UNK         0.0600 
     36 H36        -7.8177  -15.0233   36.1056 H         1 UNK         0.0600 
     37 H37        -6.1583  -14.7522   36.5777 H         1 UNK         0.0600 
     38 H38        -4.9188  -12.5914   35.6100 H         1 UNK         0.0600 
     39 H39        -5.8197  -11.5447   34.5409 H         1 UNK         0.0600 
     40 H40        -8.5609  -13.0252   37.3479 H         1 UNK         0.0600 
     41 H41        -7.6687  -14.0887   38.4088 H         1 UNK         0.0600 
     42 H42        -5.6776  -10.5825   36.8362 H         1 UNK         0.0600 
     43 H43        -7.3327  -10.8776   36.3622 H         1 UNK         0.0600 
     44 H44        -5.6177  -12.6999   38.1133 H         1 UNK         0.0600 
     45 H45       -10.8689   -3.7799   35.2151 H         1 UNK         0.0300 
     46 H46        -9.2994   -4.0098   35.9760 H         1 UNK         0.0300 
     47 H47       -10.7367   -3.6501   36.9645 H         1 UNK         0.0300 
     48 H48       -12.1869   -9.8007   35.4797 H         1 UNK         0.0300 
     49 H49       -12.1094   -9.8418   37.2365 H         1 UNK         0.0300 
     50 H50       -10.6529  -10.1635   36.2622 H         1 UNK         0.0300 
     51 H51        -7.1240   -9.5514   42.5912 H         1 UNK         0.4286 
@<TRIPOS>BOND
     1    1    2 ar   
     2    1    4 ar   
     3    1   29 1    
     4    2    5 ar   
     5    2   30 1    
     6    3    4 ar   
     7    3    6 ar   
     8    3   31 1    
     9    4    8 1    
    10    5    6 ar   
    11    5   24 1    
    12    6   25 1    
    13    7    9 1    
    14    7   15 1    
    15    7   20 2    
    16    8   21 am   BACKBONE|DICT|INTERRES
    17    8   22 2    
    18    9   16 1    
    19    9   32 1    
    20    9   33 1    
    21   10   11 1    
    22   10   12 1    
    23   10   34 1    
    24   10   35 1    
    25   11   13 1    
    26   11   36 1    
    27   11   37 1    
    28   12   14 1    
    29   12   38 1    
    30   12   39 1    
    31   13   15 1    
    32   13   40 1    
    33   13   41 1    
    34   14   15 1    
    35   14   42 1    
    36   14   43 1    
    37   15   44 1    
    38   16   19 1    
    39   16   21 1    
    40   16   23 1    
    41   17   24 1    
    42   17   45 1    
    43   17   46 1    
    44   17   47 1    
    45   18   25 1    
    46   18   48 1    
    47   18   49 1    
    48   18   50 1    
    49   19   26 1    
    50   19   27 1    
    51   19   28 1    
    52   20   21 1    
    53   23   51 1    
@<TRIPOS>SUBSTRUCTURE
     1 UNK         1 GROUP             0       ****    0 ROOT    
@<TRIPOS>MOLECULE
ZINC00798383_10
46   48    1
SMALL
USER_CHARGES


@<TRIPOS>ATOM
      1 C1         -4.8218  -10.7546   42.7863 C.ar      1 UNK        -0.2222 
      2 C2         -5.3885   -9.6905   43.5090 C.ar      1 UNK        -0.0888 
      3 C3         -4.6948  -10.6697   41.3864 C.ar      1 UNK        -0.2243 
      4 C4         -5.8277   -8.5414   42.8280 C.ar      1 UNK        -0.3541 
      5 C5         -6.7944   -3.9631   39.5273 C.ar      1 UNK        -0.1150 
      6 C6         -7.9842   -5.8691   38.5819 C.ar      1 UNK        -0.1150 
      7 C7         -5.6760   -7.8956   39.2358 C.ar      1 UNK        -0.1072 
      8 C8         -5.1269   -9.5256   40.6719 C.ar      1 UNK         0.1233 
      9 C9         -7.1385   -5.3289   39.5745 C.ar      1 UNK        -0.1150 
     10 C10        -5.1300   -9.1531   39.2870 C.ar      1 UNK        -0.2340 
     11 C11        -5.6997   -8.4546   41.4250 C.ar      1 UNK         0.2860 
     12 C12        -7.2483   -3.1400   38.4695 C.ar      1 UNK         0.0850 
     13 C13        -8.4415   -5.0675   37.5091 C.ar      1 UNK         0.0850 
     14 C14        -8.0599   -3.7067   37.4614 C.ar      1 UNK         0.0850 
     15 C15        -6.6636   -6.1703   40.7253 C.2       1 UNK         0.7375 
     16 C16        -4.6594   -9.8976   38.1263 C.2       1 UNK         0.6250 
     17 C17        -6.1863   -1.1879   39.3888 C.3       1 UNK         0.1100 
     18 C18        -9.6904   -6.8858   36.5460 C.3       1 UNK         0.1100 
     19 C19        -7.7147   -3.0063   35.2692 C.3       1 UNK         0.1100 
     20 C20        -4.4395   -9.8402   35.7520 C.3       1 UNK         0.1600 
     21 N21        -6.0512   -7.4630   40.5103 N.pl3     1 UNK        -0.2434 
     22 O22        -6.7506   -5.7539   41.8788 O.2       1 UNK        -0.5000 
     23 O23        -4.1525  -11.0175   38.1792 O.2       1 UNK        -0.4300 
     24 O24        -6.9370   -1.8013   38.3517 O.3       1 UNK        -0.2850 
     25 O25        -9.2484   -5.5378   36.4934 O.3       1 UNK        -0.2850 
     26 O26        -8.5062   -2.9090   36.4401 O.3       1 UNK        -0.2850 
     27 O27        -4.8423   -9.2346   36.9687 O.3       1 UNK        -0.3300 
     28 H28        -4.4820  -11.6396   43.3066 H         1 UNK         0.1489 
     29 H29        -5.4861   -9.7552   44.5841 H         1 UNK         0.1359 
     30 H30        -4.2556  -11.4936   40.8420 H         1 UNK         0.1699 
     31 H31        -6.2624   -7.7241   43.3849 H         1 UNK         0.1796 
     32 H32        -6.1764   -3.5682   40.3201 H         1 UNK         0.1150 
     33 H33        -8.2722   -6.9064   38.6645 H         1 UNK         0.1150 
     34 H34        -5.8108   -7.2781   38.3590 H         1 UNK         0.1929 
     35 H35        -6.0578   -0.1298   39.1610 H         1 UNK         0.0300 
     36 H36        -5.1926   -1.6289   39.4758 H         1 UNK         0.0300 
     37 H37        -6.7000   -1.2576   40.3488 H         1 UNK         0.0300 
     38 H38       -10.3249   -7.0892   35.6835 H         1 UNK         0.0300 
     39 H39       -10.2829   -7.0759   37.4422 H         1 UNK         0.0300 
     40 H40        -8.8522   -7.5830   36.5096 H         1 UNK         0.0300 
     41 H41        -8.1012   -2.3256   34.5109 H         1 UNK         0.0300 
     42 H42        -7.7339   -4.0153   34.8556 H         1 UNK         0.0300 
     43 H43        -6.6789   -2.7301   35.4714 H         1 UNK         0.0300 
     44 H44        -4.6488   -9.1732   34.9160 H         1 UNK         0.0300 
     45 H45        -4.9787  -10.7740   35.5870 H         1 UNK         0.0300 
     46 H46        -3.3698  -10.0538   35.7596 H         1 UNK         0.0300 
@<TRIPOS>BOND
     1    1    2 ar   
     2    1    3 ar   
     3    1   28 1    
     4    2    4 ar   
     5    2   29 1    
     6    3    8 ar   
     7    3   30 1    
     8    4   11 ar   
     9    4   31 1    
    10    5    9 ar   
    11    5   12 ar   
    12    5   32 1    
    13    6    9 ar   
    14    6   13 ar   
    15    6   33 1    
    16    7   10 ar   
    17    7   21 ar   
    18    7   34 1    
    19    8   10 ar   
    20    8   11 ar   
    21    9   15 1    
    22   10   16 1    
    23   11   21 ar   
    24   12   14 ar   
    25   12   24 1    
    26   13   14 ar   
    27   13   25 1    
    28   14   26 1    
    29   15   21 1    
    30   15   22 2    
    31   16   23 2    
    32   16   27 1    
    33   17   24 1    
    34   17   35 1    
    35   17   36 1    
    36   17   37 1    
    37   18   25 1    
    38   18   38 1    
    39   18   39 1    
    40   18   40 1    
    41   19   26 1    
    42   19   41 1    
    43   19   42 1    
    44   19   43 1    
    45   20   27 1    
    46   20   44 1    
    47   20   45 1    
    48   20   46 1    
@<TRIPOS>SUBSTRUCTURE
     1 UNK         1 GROUP             0       ****    0 ROOT    
@<TRIPOS>MOLECULE
ZINC00804413_26
41   44    1
SMALL
USER_CHARGES


@<TRIPOS>ATOM
      1 C1         -4.0586   -9.9809   35.2749 C.ar      1 UNK        -0.1490 
      2 C2         -3.8058  -11.0594   36.1505 C.ar      1 UNK        -0.1817 
      3 C3         -6.3284   -4.0074   39.5027 C.ar      1 UNK        -0.1150 
      4 C4         -4.6036   -8.7720   35.7611 C.ar      1 UNK        -0.3696 
      5 C5         -4.0960  -10.9400   37.5248 C.ar      1 UNK        -0.3290 
      6 C6         -6.7750   -3.1166   38.5121 C.ar      1 UNK        -0.1150 
      7 C7         -7.7647   -5.7308   38.5718 C.ar      1 UNK        -0.1150 
      8 C8         -6.8009   -5.3324   39.5225 C.ar      1 UNK        -0.1150 
      9 C9         -4.9034   -8.6228   37.1311 C.ar      1 UNK         0.4982 
     10 C10        -4.6386   -9.7336   37.9998 C.ar      1 UNK         0.2299 
     11 C11        -7.6980   -3.5184   37.5262 C.ar      1 UNK         0.0850 
     12 C12        -8.2173   -4.8478   37.5566 C.ar      1 UNK         0.0850 
     13 C13        -5.4748   -8.0322   39.0546 C.ar      1 UNK         0.5638 
     14 C14        -6.3501   -6.2677   40.6100 C.2       1 UNK         0.6150 
     15 C15        -5.0693   -9.7494   40.5884 C.3       1 UNK         0.0025 
     16 C16        -5.5968   -8.5024   41.3435 C.3       1 UNK        -0.0500 
     17 C17        -8.5960   -2.8888   35.3653 C.3       1 UNK         0.1100 
     18 C18        -9.5424   -6.6021   36.5589 C.3       1 UNK         0.1100 
     19 N19        -5.4348   -7.5378   37.8212 N.2       1 UNK        -0.6787 
     20 N20        -5.0327   -9.2652   39.2400 N.pl3     1 UNK        -0.3410 
     21 N21        -5.8780   -7.4994   40.3001 N.am      1 UNK        -0.1550 
     22 O22        -6.3953   -5.8734   41.7770 O.2       1 UNK        -0.5000 
     23 O23        -8.0245   -2.5335   36.6144 O.3       1 UNK        -0.2850 
     24 O24        -9.1601   -5.2360   36.6253 O.3       1 UNK        -0.2850 
     25 H25        -3.8306  -10.0800   34.2220 H         1 UNK         0.1514 
     26 H26        -3.3856  -11.9787   35.7634 H         1 UNK         0.1607 
     27 H27        -5.6212   -3.6729   40.2488 H         1 UNK         0.1150 
     28 H28        -4.7940   -7.9466   35.0920 H         1 UNK         0.2091 
     29 H29        -3.9043  -11.7575   38.2031 H         1 UNK         0.1984 
     30 H30        -6.3984   -2.1044   38.4992 H         1 UNK         0.1150 
     31 H31        -8.1417   -6.7383   38.6404 H         1 UNK         0.1150 
     32 H32        -4.0691  -10.0462   40.9071 H         1 UNK         0.0600 
     33 H33        -5.7490  -10.5999   40.6546 H         1 UNK         0.0600 
     34 H34        -6.5003   -8.7307   41.9109 H         1 UNK         0.0600 
     35 H35        -4.8481   -8.1197   42.0394 H         1 UNK         0.0600 
     36 H36        -8.5228   -2.0389   34.6871 H         1 UNK         0.0300 
     37 H37        -9.6545   -3.1298   35.4672 H         1 UNK         0.0300 
     38 H38        -8.0696   -3.7231   34.8991 H         1 UNK         0.0300 
     39 H39       -10.2130   -6.7453   35.7118 H         1 UNK         0.0300 
     40 H40       -10.0793   -6.9095   37.4571 H         1 UNK         0.0300 
     41 H41        -8.6793   -7.2526   36.4088 H         1 UNK         0.0300 
@<TRIPOS>BOND
     1    1    2 ar   
     2    1    4 ar   
     3    1   25 1    
     4    2    5 ar   
     5    2   26 1    
     6    3    6 ar   
     7    3    8 ar   
     8    3   27 1    
     9    4    9 ar   
    10    4   28 1    
    11    5   10 ar   
    12    5   29 1    
    13    6   11 ar   
    14    6   30 1    
    15    7    8 ar   
    16    7   12 ar   
    17    7   31 1    
    18    8   14 1    
    19    9   10 ar   
    20    9   19 ar   
    21   10   20 ar   
    22   11   12 ar   
    23   11   23 1    
    24   12   24 1    
    25   13   19 ar   
    26   13   20 ar   
    27   13   21 1    
    28   14   21 am   BACKBONE|DICT|INTERRES
    29   14   22 2    
    30   15   16 1    
    31   15   20 1    
    32   15   32 1    
    33   15   33 1    
    34   16   21 1    
    35   16   34 1    
    36   16   35 1    
    37   17   23 1    
    38   17   36 1    
    39   17   37 1    
    40   17   38 1    
    41   18   24 1    
    42   18   39 1    
    43   18   40 1    
    44   18   41 1    
@<TRIPOS>SUBSTRUCTURE
     1 UNK         1 GROUP             0       ****    0 ROOT    
@<TRIPOS>MOLECULE
ZINC00807050_50
46   48    1
SMALL
USER_CHARGES


@<TRIPOS>ATOM
      1 C1         -5.5154  -10.3439   37.0969 C.ar      1 UNK        -0.1150 
      2 C2         -4.9818  -11.9337   38.8424 C.ar      1 UNK        -0.1150 
      3 C3         -8.3461   -6.2947   38.4511 C.ar      1 UNK        -0.1150 
      4 C4         -5.1446  -11.2861   36.1169 C.ar      1 UNK        -0.1150 
      5 C5         -4.6105  -12.8798   37.8672 C.ar      1 UNK        -0.1150 
      6 C6         -8.8124   -5.4981   37.3921 C.ar      1 UNK        -0.1150 
      7 C7         -7.2252   -4.3549   39.3873 C.ar      1 UNK        -0.1150 
      8 C8         -5.4410  -10.6480   38.4762 C.ar      1 UNK         0.0000 
      9 C9         -7.5254   -5.7323   39.4492 C.ar      1 UNK        -0.1150 
     10 C10        -4.6857  -12.5702   36.4966 C.ar      1 UNK         0.0850 
     11 C11        -8.4903   -4.1297   37.3031 C.ar      1 UNK         0.0850 
     12 C12        -7.6935   -3.5336   38.3277 C.ar      1 UNK         0.0850 
     13 C13        -5.8299   -9.6550   39.5040 C.ar      1 UNK         0.5806 
     14 C14        -6.1706   -8.7820   41.3580 C.ar      1 UNK         0.5449 
     15 C15        -7.0302   -6.5487   40.6153 C.2       1 UNK         0.7375 
     16 C16        -4.3586  -13.2622   34.2224 C.3       1 UNK         0.1100 
     17 C17        -8.5905   -2.1945   35.8347 C.3       1 UNK         0.1100 
     18 C18        -6.6647   -1.5875   39.3307 C.3       1 UNK         0.1100 
     19 C19        -5.5864  -10.1420   43.6903 C.3       1 UNK        -0.0125 
     20 N20        -5.7196   -9.9233   40.8337 N.2       1 UNK        -0.6329 
     21 N21        -6.3081   -8.4637   39.1730 N.2       1 UNK        -0.5282 
     22 N22        -6.5227   -7.8962   40.3905 N.pl3     1 UNK         0.0656 
     23 O23        -6.9816   -6.0392   41.7339 O.2       1 UNK        -0.5000 
     24 O24        -4.3014  -13.5527   35.6112 O.3       1 UNK        -0.2850 
     25 O25        -9.0226   -3.4966   36.1960 O.3       1 UNK        -0.2850 
     26 O26        -7.4093   -2.1831   38.2775 O.3       1 UNK        -0.2850 
     27 S27        -6.2926   -8.5683   43.1187 S.3       1 UNK        -0.3200 
     28 H28        -5.8609   -9.3702   36.7806 H         1 UNK         0.1150 
     29 H29        -4.9119  -12.2014   39.8867 H         1 UNK         0.1150 
     30 H30        -8.6218   -7.3390   38.4859 H         1 UNK         0.1150 
     31 H31        -5.2214  -10.9967   35.0802 H         1 UNK         0.1150 
     32 H32        -4.2623  -13.8556   38.1732 H         1 UNK         0.1150 
     33 H33        -9.4306   -5.9428   36.6260 H         1 UNK         0.1150 
     34 H34        -6.6240   -3.9467   40.1853 H         1 UNK         0.1150 
     35 H35        -4.0179  -14.1308   33.6591 H         1 UNK         0.0300 
     36 H36        -3.7081  -12.4257   33.9628 H         1 UNK         0.0300 
     37 H37        -5.3779  -13.0412   33.9031 H         1 UNK         0.0300 
     38 H38        -8.9852   -1.9515   34.8484 H         1 UNK         0.0300 
     39 H39        -7.5031   -2.1317   35.7727 H         1 UNK         0.0300 
     40 H40        -8.9685   -1.4424   36.5279 H         1 UNK         0.0300 
     41 H41        -6.5571   -0.5211   39.1333 H         1 UNK         0.0300 
     42 H42        -5.6615   -2.0103   39.4003 H         1 UNK         0.0300 
     43 H43        -7.1730   -1.6929   40.2903 H         1 UNK         0.0300 
     44 H44        -5.5742  -10.1726   44.7794 H         1 UNK         0.0600 
     45 H45        -4.5629  -10.2570   43.3325 H         1 UNK         0.0600 
     46 H46        -6.1793  -10.9835   43.3308 H         1 UNK         0.0600 
@<TRIPOS>BOND
     1    1    4 ar   
     2    1    8 ar   
     3    1   28 1    
     4    2    5 ar   
     5    2    8 ar   
     6    2   29 1    
     7    3    6 ar   
     8    3    9 ar   
     9    3   30 1    
    10    4   10 ar   
    11    4   31 1    
    12    5   10 ar   
    13    5   32 1    
    14    6   11 ar   
    15    6   33 1    
    16    7    9 ar   
    17    7   12 ar   
    18    7   34 1    
    19    8   13 1    
    20    9   15 1    
    21   10   24 1    
    22   11   12 ar   
    23   11   25 1    
    24   12   26 1    
    25   13   20 ar   
    26   13   21 ar   
    27   14   20 ar   
    28   14   22 ar   
    29   14   27 1    
    30   15   22 1    
    31   15   23 2    
    32   16   24 1    
    33   16   35 1    
    34   16   36 1    
    35   16   37 1    
    36   17   25 1    
    37   17   38 1    
    38   17   39 1    
    39   17   40 1    
    40   18   26 1    
    41   18   41 1    
    42   18   42 1    
    43   18   43 1    
    44   19   27 1    
    45   19   44 1    
    46   19   45 1    
    47   19   46 1    
    48   21   22 ar   
@<TRIPOS>SUBSTRUCTURE
     1 UNK         1 GROUP             0       ****    0 ROOT    
@<TRIPOS>MOLECULE
ZINC00851815_28
54   56    1
SMALL
USER_CHARGES


@<TRIPOS>ATOM
      1 C1         -5.7404   -9.6023   36.4977 C.ar      1 UNK        -0.1150 
      2 C2         -5.8078   -8.2654   36.9250 C.ar      1 UNK        -0.1150 
      3 C3         -6.1732  -10.6317   37.3522 C.ar      1 UNK        -0.1150 
      4 C4         -6.3264   -7.9578   38.1959 C.ar      1 UNK        -0.1150 
      5 C5         -9.4724   -7.4265   38.5555 C.ar      1 UNK        -0.1150 
      6 C6         -8.7363   -5.3740   39.6425 C.ar      1 UNK        -0.1150 
      7 C7         -8.7589   -6.7831   39.5905 C.ar      1 UNK        -0.1150 
      8 C8         -6.6950  -10.3325   38.6278 C.ar      1 UNK        -0.1150 
      9 C9         -6.8106   -8.9807   39.0519 C.ar      1 UNK        -0.0383 
     10 C10       -10.1047   -6.6756   37.5373 C.ar      1 UNK         0.0850 
     11 C11        -9.3783   -4.6014   38.6452 C.ar      1 UNK         0.0850 
     12 C12       -10.0479   -5.2656   37.5911 C.ar      1 UNK         0.0850 
     13 C13        -8.0834   -7.5790   40.6771 C.2       1 UNK         0.6150 
     14 C14        -7.0849  -11.4912   39.5348 C.3       1 UNK        -0.0050 
     15 C15        -7.7638  -11.0572   40.8406 C.3       1 UNK        -0.1200 
     16 C16        -7.1919   -9.7350   41.3683 C.3       1 UNK        -0.0500 
     17 C17       -11.4835   -9.0156   35.0360 C.3       1 UNK        -0.1800 
     18 C18        -8.9653   -1.0276   39.4809 C.3       1 UNK        -0.1800 
     19 C19       -10.6113   -3.2803   34.5792 C.3       1 UNK        -0.1800 
     20 C20       -10.7480   -8.6533   36.3269 C.3       1 UNK         0.1400 
     21 C21        -8.7827   -2.5279   39.7146 C.3       1 UNK         0.1400 
     22 C22        -9.7916   -4.0425   35.6221 C.3       1 UNK         0.1400 
     23 N23        -7.3596   -8.6885   40.3497 N.am      1 UNK        -0.0317 
     24 O24        -8.1914   -7.1774   41.8374 O.2       1 UNK        -0.5000 
     25 O25       -10.7756   -7.2415   36.4725 O.3       1 UNK        -0.2850 
     26 O26        -9.3912   -3.2214   38.6361 O.3       1 UNK        -0.2850 
     27 O27       -10.6761   -4.5407   36.6111 O.3       1 UNK        -0.2850 
     28 H28        -5.3399   -9.8391   35.5224 H         1 UNK         0.1150 
     29 H29        -5.4579   -7.4734   36.2789 H         1 UNK         0.1150 
     30 H30        -6.0907  -11.6591   37.0276 H         1 UNK         0.1150 
     31 H31        -6.3480   -6.9208   38.4978 H         1 UNK         0.1150 
     32 H32        -9.5070   -8.5051   38.5511 H         1 UNK         0.1150 
     33 H33        -8.2160   -4.9067   40.4652 H         1 UNK         0.1150 
     34 H34        -7.7244  -12.1886   38.9921 H         1 UNK         0.0600 
     35 H35        -6.1684  -12.0322   39.7741 H         1 UNK         0.0600 
     36 H36        -8.8298  -10.9170   40.6552 H         1 UNK         0.0600 
     37 H37        -7.6867  -11.8468   41.5889 H         1 UNK         0.0600 
     38 H38        -7.6731   -9.4979   42.3191 H         1 UNK         0.0600 
     39 H39        -6.1285   -9.8409   41.5863 H         1 UNK         0.0600 
     40 H40       -12.5181   -8.6733   35.0690 H         1 UNK         0.0600 
     41 H41       -11.0053   -8.5517   34.1732 H         1 UNK         0.0600 
     42 H42       -11.4898  -10.0941   34.8787 H         1 UNK         0.0600 
     43 H43        -8.5035   -0.7205   38.5423 H         1 UNK         0.0600 
     44 H44       -10.0230   -0.7675   39.4342 H         1 UNK         0.0600 
     45 H45        -8.5118   -0.4485   40.2852 H         1 UNK         0.0600 
     46 H46       -11.3531   -3.9318   34.1167 H         1 UNK         0.0600 
     47 H47       -11.1388   -2.4435   35.0378 H         1 UNK         0.0600 
     48 H48        -9.9709   -2.8845   33.7913 H         1 UNK         0.0600 
     49 H49        -9.7188   -9.0134   36.2762 H         1 UNK         0.0300 
     50 H50       -11.2390   -9.1326   37.1751 H         1 UNK         0.0300 
     51 H51        -9.2467   -2.8114   40.6606 H         1 UNK         0.0300 
     52 H52        -7.7188   -2.7633   39.7681 H         1 UNK         0.0300 
     53 H53        -9.0457   -3.3800   36.0636 H         1 UNK         0.0300 
     54 H54        -9.2588   -4.8689   35.1479 H         1 UNK         0.0300 
@<TRIPOS>BOND
     1    1    2 ar   
     2    1    3 ar   
     3    1   28 1    
     4    2    4 ar   
     5    2   29 1    
     6    3    8 ar   
     7    3   30 1    
     8    4    9 ar   
     9    4   31 1    
    10    5    7 ar   
    11    5   10 ar   
    12    5   32 1    
    13    6    7 ar   
    14    6   11 ar   
    15    6   33 1    
    16    7   13 1    
    17    8    9 ar   
    18    8   14 1    
    19    9   23 1    
    20   10   12 ar   
    21   10   25 1    
    22   11   12 ar   
    23   11   26 1    
    24   12   27 1    
    25   13   23 am   BACKBONE|DICT|INTERRES
    26   13   24 2    
    27   14   15 1    
    28   14   34 1    
    29   14   35 1    
    30   15   16 1    
    31   15   36 1    
    32   15   37 1    
    33   16   23 1    
    34   16   38 1    
    35   16   39 1    
    36   17   20 1    
    37   17   40 1    
    38   17   41 1    
    39   17   42 1    
    40   18   21 1    
    41   18   43 1    
    42   18   44 1    
    43   18   45 1    
    44   19   22 1    
    45   19   46 1    
    46   19   47 1    
    47   19   48 1    
    48   20   25 1    
    49   20   49 1    
    50   20   50 1    
    51   21   26 1    
    52   21   51 1    
    53   21   52 1    
    54   22   27 1    
    55   22   53 1    
    56   22   54 1    
@<TRIPOS>SUBSTRUCTURE
     1 UNK         1 GROUP             0       ****    0 ROOT    
@<TRIPOS>MOLECULE
ZINC00860287_261
38   39    1
SMALL
USER_CHARGES


@<TRIPOS>ATOM
      1 C1         -8.8469  -13.9771   35.2322 C.ar      1 UNK        -0.1150 
      2 C2        -10.4957   -7.8438   39.1810 C.ar      1 UNK        -0.1150 
      3 C3         -8.9856  -13.2586   36.4363 C.ar      1 UNK        -0.1150 
      4 C4        -11.0934   -7.1506   38.1126 C.ar      1 UNK        -0.1150 
      5 C5         -8.2848  -15.2678   35.2409 C.ar      1 UNK        -0.1150 
      6 C6        -11.4396   -9.9252   38.3538 C.ar      1 UNK        -0.1150 
      7 C7         -8.0020  -15.1214   37.6583 C.ar      1 UNK        -0.1150 
      8 C8        -10.6517   -9.2394   39.3068 C.ar      1 UNK        -0.1150 
      9 C9         -8.5595  -13.8252   37.6615 C.ar      1 UNK         0.2000 
     10 C10       -11.8651   -7.8416   37.1463 C.ar      1 UNK         0.0850 
     11 C11       -12.0401   -9.2391   37.2692 C.ar      1 UNK         0.0850 
     12 C12        -7.8634  -15.8393   36.4550 C.ar      1 UNK         0.2200 
     13 C13        -9.5219  -11.3420   40.2714 C.2       1 UNK        -0.1150 
     14 C14        -9.1202  -11.8518   39.0905 C.2       1 UNK        -0.0970 
     15 C15        -9.9876   -9.9465   40.4442 C.2       1 UNK         0.5850 
     16 C16       -12.3283   -5.8211   35.9257 C.3       1 UNK         0.1100 
     17 C17       -12.9963  -11.2664   36.3891 C.3       1 UNK         0.1100 
     18 N18        -8.6835  -13.1534   38.8873 N.pl3     1 UNK        -0.5717 
     19 O19        -9.7986   -9.3720   41.5152 O.2       1 UNK        -0.4700 
     20 O20       -12.4717   -7.2257   36.0709 O.3       1 UNK        -0.2850 
     21 O21       -12.8019   -9.8629   36.3023 O.3       1 UNK        -0.2850 
     22 F22        -7.3254  -17.0815   36.4668 F         1 UNK        -0.2200 
     23 H23        -9.1735  -13.5370   34.3012 H         1 UNK         0.1150 
     24 H24        -9.9085   -7.2980   39.9071 H         1 UNK         0.1150 
     25 H25        -9.4294  -12.2757   36.3940 H         1 UNK         0.1150 
     26 H26       -10.9415   -6.0841   38.0569 H         1 UNK         0.1150 
     27 H27        -8.1761  -15.8226   34.3204 H         1 UNK         0.1150 
     28 H28       -11.5814  -10.9877   38.4727 H         1 UNK         0.1150 
     29 H29        -7.6702  -15.5805   38.5770 H         1 UNK         0.1150 
     30 H30        -9.5020  -11.9496   41.1633 H         1 UNK         0.1150 
     31 H31        -9.1035  -11.2356   38.2034 H         1 UNK         0.1150 
     32 H32       -12.8696   -5.4956   35.0375 H         1 UNK         0.0300 
     33 H33       -11.2828   -5.5381   35.7963 H         1 UNK         0.0300 
     34 H34       -12.7467   -5.2871   36.7799 H         1 UNK         0.0300 
     35 H35       -13.6080  -11.5957   35.5495 H         1 UNK         0.0300 
     36 H36       -13.5210  -11.5401   37.3054 H         1 UNK         0.0300 
     37 H37       -12.0493  -11.8054   36.3375 H         1 UNK         0.0300 
     38 H38        -8.4773  -13.7074   39.7080 H         1 UNK         0.3537 
@<TRIPOS>BOND
     1    1    3 ar   
     2    1    5 ar   
     3    1   23 1    
     4    2    4 ar   
     5    2    8 ar   
     6    2   24 1    
     7    3    9 ar   
     8    3   25 1    
     9    4   10 ar   
    10    4   26 1    
    11    5   12 ar   
    12    5   27 1    
    13    6    8 ar   
    14    6   11 ar   
    15    6   28 1    
    16    7    9 ar   
    17    7   12 ar   
    18    7   29 1    
    19    8   15 1    
    20    9   18 1    
    21   10   11 ar   
    22   10   20 1    
    23   11   21 1    
    24   12   22 1    
    25   13   14 2    
    26   13   15 1    
    27   13   30 1    
    28   14   18 1    
    29   14   31 1    
    30   15   19 2    
    31   16   20 1    
    32   16   32 1    
    33   16   33 1    
    34   16   34 1    
    35   17   21 1    
    36   17   35 1    
    37   17   36 1    
    38   17   37 1    
    39   18   38 1    
@<TRIPOS>SUBSTRUCTURE
     1 UNK         1 GROUP             0       ****    0 ROOT    
@<TRIPOS>MOLECULE
ZINC00870856_277
38   39    1
SMALL
USER_CHARGES


@<TRIPOS>ATOM
      1 C1        -10.5001   -7.8600   39.1828 C.ar      1 UNK        -0.1150 
      2 C2         -9.0037  -13.2691   36.4458 C.ar      1 UNK        -0.1150 
      3 C3        -11.0845   -7.1646   38.1084 C.ar      1 UNK        -0.1150 
      4 C4         -8.8512  -13.9817   35.2408 C.ar      1 UNK        -0.1150 
      5 C5        -11.4590   -9.9352   38.3562 C.ar      1 UNK        -0.1150 
      6 C6         -8.0068  -15.1262   37.6637 C.ar      1 UNK        -0.1150 
      7 C7        -10.6703   -9.2538   39.3114 C.ar      1 UNK        -0.1150 
      8 C8         -8.5773  -13.8366   37.6692 C.ar      1 UNK         0.2000 
      9 C9        -11.8563   -7.8517   37.1392 C.ar      1 UNK         0.0850 
     10 C10       -12.0455   -9.2469   37.2655 C.ar      1 UNK         0.0850 
     11 C11        -8.2754  -15.2660   35.2417 C.ar      1 UNK         0.1800 
     12 C12        -7.8519  -15.8412   36.4594 C.ar      1 UNK         0.1800 
     13 C13        -9.5557  -11.3614   40.2802 C.2       1 UNK        -0.1150 
     14 C14        -9.1484  -11.8692   39.1003 C.2       1 UNK        -0.0970 
     15 C15       -10.0190   -9.9650   40.4533 C.2       1 UNK         0.5850 
     16 C16       -12.2960   -5.8308   35.9106 C.3       1 UNK         0.1100 
     17 C17       -13.0236  -11.2659   36.3903 C.3       1 UNK         0.1100 
     18 N18        -8.7124  -13.1711   38.8962 N.pl3     1 UNK        -0.5717 
     19 O19        -9.8373   -9.3937   41.5270 O.2       1 UNK        -0.4700 
     20 O20       -12.4498   -7.2341   36.0576 O.3       1 UNK        -0.2850 
     21 O21       -12.8063   -9.8664   36.2953 O.3       1 UNK        -0.2850 
     22 Cl22       -8.1035  -16.1124   33.7458 Cl        1 UNK        -0.1800 
     23 Cl23       -7.1429  -17.4164   36.5030 Cl        1 UNK        -0.1800 
     24 H24        -9.9117   -7.3180   39.9108 H         1 UNK         0.1150 
     25 H25        -9.4581  -12.2910   36.4051 H         1 UNK         0.1150 
     26 H26       -10.9216   -6.0997   38.0499 H         1 UNK         0.1150 
     27 H27        -9.1785  -13.5428   34.3099 H         1 UNK         0.1150 
     28 H28       -11.6119  -10.9958   38.4780 H         1 UNK         0.1150 
     29 H29        -7.6750  -15.5812   38.5847 H         1 UNK         0.1150 
     30 H30        -9.5427  -11.9706   41.1713 H         1 UNK         0.1150 
     31 H31        -9.1254  -11.2501   38.2151 H         1 UNK         0.1150 
     32 H32       -12.8292   -5.5034   35.0183 H         1 UNK         0.0300 
     33 H33       -11.2478   -5.5552   35.7876 H         1 UNK         0.0300 
     34 H34       -12.7164   -5.2924   36.7610 H         1 UNK         0.0300 
     35 H35       -13.6336  -11.5913   35.5478 H         1 UNK         0.0300 
     36 H36       -13.5601  -11.5243   37.3042 H         1 UNK         0.0300 
     37 H37       -12.0852  -11.8204   36.3505 H         1 UNK         0.0300 
     38 H38        -8.5103  -13.7246   39.7187 H         1 UNK         0.3537 
@<TRIPOS>BOND
     1    1    3 ar   
     2    1    7 ar   
     3    1   24 1    
     4    2    4 ar   
     5    2    8 ar   
     6    2   25 1    
     7    3    9 ar   
     8    3   26 1    
     9    4   11 ar   
    10    4   27 1    
    11    5    7 ar   
    12    5   10 ar   
    13    5   28 1    
    14    6    8 ar   
    15    6   12 ar   
    16    6   29 1    
    17    7   15 1    
    18    8   18 1    
    19    9   10 ar   
    20    9   20 1    
    21   10   21 1    
    22   11   12 ar   
    23   11   22 1    
    24   12   23 1    
    25   13   14 2    
    26   13   15 1    
    27   13   30 1    
    28   14   18 1    
    29   14   31 1    
    30   15   19 2    
    31   16   20 1    
    32   16   32 1    
    33   16   33 1    
    34   16   34 1    
    35   17   21 1    
    36   17   35 1    
    37   17   36 1    
    38   17   37 1    
    39   18   38 1    
@<TRIPOS>SUBSTRUCTURE
     1 UNK         1 GROUP             0       ****    0 ROOT    
@<TRIPOS>MOLECULE
ZINC00890035_40
51   53    1
SMALL
USER_CHARGES


@<TRIPOS>ATOM
      1 C1         -3.7346  -10.1534   34.9982 C.ar      1 UNK        -0.1150 
      2 C2         -3.1374   -8.9617   35.4514 C.ar      1 UNK        -0.1150 
      3 C3         -4.6470  -10.8388   35.8224 C.ar      1 UNK        -0.1150 
      4 C4         -3.4525   -8.4556   36.7274 C.ar      1 UNK        -0.1150 
      5 C5         -4.9617  -10.3335   37.0989 C.ar      1 UNK        -0.1150 
      6 C6         -6.6651   -4.2594   39.3501 C.ar      1 UNK        -0.1150 
      7 C7         -8.3821   -5.8972   38.7920 C.ar      1 UNK        -0.1150 
      8 C8         -7.2677   -5.5142   39.5688 C.ar      1 UNK        -0.1150 
      9 C9         -4.3667   -9.1377   37.5594 C.ar      1 UNK        -0.1150 
     10 C10        -7.1338   -3.3999   38.3277 C.ar      1 UNK         0.0850 
     11 C11        -8.8635   -5.0575   37.7600 C.ar      1 UNK         0.0850 
     12 C12        -8.2242   -3.8190   37.5287 C.ar      1 UNK         0.0850 
     13 C13        -6.7670   -6.3910   40.6807 C.2       1 UNK         0.6150 
     14 C14        -4.6607   -8.9923   41.4496 C.3       1 UNK        -0.1200 
     15 C15        -4.2466   -9.5254   40.0673 C.3       1 UNK        -0.1200 
     16 C16        -6.1605   -8.6490   41.4754 C.3       1 UNK        -0.0500 
     17 C17        -6.2050   -8.2448   39.0705 C.3       1 UNK        -0.0500 
     18 C18        -4.7036   -8.5809   38.9359 C.3       1 UNK         0.0550 
     19 C19        -5.5598   -1.6788   38.9161 C.3       1 UNK         0.1100 
     20 C20       -10.6227   -6.5939   37.1838 C.3       1 UNK         0.1100 
     21 C21        -7.9069   -3.0191   35.3606 C.3       1 UNK         0.1100 
     22 N22        -6.4649   -7.6856   40.4077 N.am      1 UNK        -0.1400 
     23 O23        -6.6574   -5.9049   41.8055 O.2       1 UNK        -0.5000 
     24 O24        -6.5885   -2.1598   38.0644 O.3       1 UNK        -0.2850 
     25 O25        -9.9296   -5.3788   36.9451 O.3       1 UNK        -0.2850 
     26 O26        -8.7039   -3.0075   36.5327 O.3       1 UNK        -0.2850 
     27 H27        -3.4923  -10.5413   34.0194 H         1 UNK         0.1150 
     28 H28        -2.4365   -8.4351   34.8198 H         1 UNK         0.1150 
     29 H29        -5.1050  -11.7539   35.4757 H         1 UNK         0.1150 
     30 H30        -2.9859   -7.5400   37.0613 H         1 UNK         0.1150 
     31 H31        -5.6615  -10.8713   37.7213 H         1 UNK         0.1150 
     32 H32        -5.8405   -3.9780   39.9877 H         1 UNK         0.1150 
     33 H33        -8.8507   -6.8460   39.0036 H         1 UNK         0.1150 
     34 H34        -4.4304   -9.7301   42.2192 H         1 UNK         0.0600 
     35 H35        -4.0780   -8.1022   41.6928 H         1 UNK         0.0600 
     36 H36        -3.1654   -9.6641   40.0274 H         1 UNK         0.0600 
     37 H37        -4.6876  -10.5128   39.9265 H         1 UNK         0.0600 
     38 H38        -6.7557   -9.5502   41.3239 H         1 UNK         0.0600 
     39 H39        -6.4387   -8.2759   42.4631 H         1 UNK         0.0600 
     40 H40        -6.4718   -7.5717   38.2575 H         1 UNK         0.0600 
     41 H41        -6.8182   -9.1360   38.9351 H         1 UNK         0.0600 
     42 H42        -4.1522   -7.6459   39.0525 H         1 UNK         0.0600 
     43 H43        -5.2757   -0.6739   38.6036 H         1 UNK         0.0300 
     44 H44        -4.6691   -2.3056   38.8581 H         1 UNK         0.0300 
     45 H45        -5.8946   -1.6180   39.9527 H         1 UNK         0.0300 
     46 H46       -11.4455   -6.6818   36.4746 H         1 UNK         0.0300 
     47 H47       -11.0495   -6.6193   38.1873 H         1 UNK         0.0300 
     48 H48        -9.9725   -7.4581   37.0427 H         1 UNK         0.0300 
     49 H49        -8.3746   -2.3967   34.5980 H         1 UNK         0.0300 
     50 H50        -7.8169   -4.0295   34.9590 H         1 UNK         0.0300 
     51 H51        -6.9064   -2.6263   35.5438 H         1 UNK         0.0300 
@<TRIPOS>BOND
     1    1    2 ar   
     2    1    3 ar   
     3    1   27 1    
     4    2    4 ar   
     5    2   28 1    
     6    3    5 ar   
     7    3   29 1    
     8    4    9 ar   
     9    4   30 1    
    10    5    9 ar   
    11    5   31 1    
    12    6    8 ar   
    13    6   10 ar   
    14    6   32 1    
    15    7    8 ar   
    16    7   11 ar   
    17    7   33 1    
    18    8   13 1    
    19    9   18 1    
    20   10   12 ar   
    21   10   24 1    
    22   11   12 ar   
    23   11   25 1    
    24   12   26 1    
    25   13   22 am   BACKBONE|DICT|INTERRES
    26   13   23 2    
    27   14   15 1    
    28   14   16 1    
    29   14   34 1    
    30   14   35 1    
    31   15   18 1    
    32   15   36 1    
    33   15   37 1    
    34   16   22 1    
    35   16   38 1    
    36   16   39 1    
    37   17   18 1    
    38   17   22 1    
    39   17   40 1    
    40   17   41 1    
    41   18   42 1    
    42   19   24 1    
    43   19   43 1    
    44   19   44 1    
    45   19   45 1    
    46   20   25 1    
    47   20   46 1    
    48   20   47 1    
    49   20   48 1    
    50   21   26 1    
    51   21   49 1    
    52   21   50 1    
    53   21   51 1    
@<TRIPOS>SUBSTRUCTURE
     1 UNK         1 GROUP             0       ****    0 ROOT    
@<TRIPOS>MOLECULE
ZINC00890036_37
51   53    1
SMALL
USER_CHARGES


@<TRIPOS>ATOM
      1 C1         -4.3117   -9.8427   34.8601 C.ar      1 UNK        -0.1150 
      2 C2         -5.3793   -8.9517   35.0748 C.ar      1 UNK        -0.1150 
      3 C3         -3.7226  -10.5059   35.9528 C.ar      1 UNK        -0.1150 
      4 C4         -5.8576   -8.7280   36.3799 C.ar      1 UNK        -0.1150 
      5 C5         -4.2009  -10.2822   37.2588 C.ar      1 UNK        -0.1150 
      6 C6         -6.9623   -4.1979   39.7015 C.ar      1 UNK        -0.1150 
      7 C7         -8.0440   -6.1857   38.7951 C.ar      1 UNK        -0.1150 
      8 C8         -7.2460   -5.5750   39.7852 C.ar      1 UNK        -0.1150 
      9 C9         -5.2787   -9.3937   37.4833 C.ar      1 UNK        -0.1150 
     10 C10        -7.4188   -3.4355   38.5997 C.ar      1 UNK         0.0850 
     11 C11        -8.5119   -5.4437   37.6856 C.ar      1 UNK         0.0850 
     12 C12        -8.1745   -4.0729   37.5897 C.ar      1 UNK         0.0850 
     13 C13        -6.7386   -6.3706   40.9526 C.2       1 UNK         0.6150 
     14 C14        -6.1489   -9.8311   41.3014 C.3       1 UNK        -0.1200 
     15 C15        -5.5827  -10.2216   39.9232 C.3       1 UNK        -0.1200 
     16 C16        -5.6382   -8.4440   41.7394 C.3       1 UNK        -0.0500 
     17 C17        -5.3104   -7.7634   39.4196 C.3       1 UNK        -0.0500 
     18 C18        -5.8305   -9.1091   38.8778 C.3       1 UNK         0.0550 
     19 C19        -6.4652   -1.4086   39.4727 C.3       1 UNK         0.1100 
     20 C20        -9.8140   -7.2918   36.8621 C.3       1 UNK         0.1100 
     21 C21        -7.8619   -3.5434   35.3402 C.3       1 UNK         0.1100 
     22 N22        -5.9678   -7.4587   40.7010 N.am      1 UNK        -0.1400 
     23 O23        -7.0532   -6.0184   42.0881 O.2       1 UNK        -0.5000 
     24 O24        -7.1577   -2.0904   38.4383 O.3       1 UNK        -0.2850 
     25 O25        -9.2868   -5.9860   36.6809 O.3       1 UNK        -0.2850 
     26 O26        -8.6116   -3.3285   36.5242 O.3       1 UNK        -0.2850 
     27 H27        -3.9429  -10.0149   33.8593 H         1 UNK         0.1150 
     28 H28        -5.8307   -8.4373   34.2388 H         1 UNK         0.1150 
     29 H29        -2.9003  -11.1871   35.7891 H         1 UNK         0.1150 
     30 H30        -6.6707   -8.0326   36.5291 H         1 UNK         0.1150 
     31 H31        -3.7224  -10.8038   38.0728 H         1 UNK         0.1150 
     32 H32        -6.3795   -3.7515   40.4932 H         1 UNK         0.1150 
     33 H33        -8.2869   -7.2300   38.9082 H         1 UNK         0.1150 
     34 H34        -7.2393   -9.8227   41.2615 H         1 UNK         0.0600 
     35 H35        -5.8752  -10.5816   42.0440 H         1 UNK         0.0600 
     36 H36        -4.5137  -10.3957   40.0440 H         1 UNK         0.0600 
     37 H37        -6.0203  -11.1629   39.5881 H         1 UNK         0.0600 
     38 H38        -6.0713   -8.1897   42.7087 H         1 UNK         0.0600 
     39 H39        -4.5579   -8.4629   41.8897 H         1 UNK         0.0600 
     40 H40        -4.2323   -7.8191   39.5762 H         1 UNK         0.0600 
     41 H41        -5.4442   -6.9778   38.6763 H         1 UNK         0.0600 
     42 H42        -6.9114   -9.0338   38.7557 H         1 UNK         0.0600 
     43 H43        -6.3739   -0.3550   39.2091 H         1 UNK         0.0300 
     44 H44        -5.4570   -1.8032   39.6047 H         1 UNK         0.0300 
     45 H45        -7.0047   -1.4656   40.4193 H         1 UNK         0.0300 
     46 H46       -10.4707   -7.5320   36.0261 H         1 UNK         0.0300 
     47 H47       -10.4066   -7.3585   37.7755 H         1 UNK         0.0300 
     48 H48        -9.0262   -8.0449   36.8866 H         1 UNK         0.0300 
     49 H49        -8.2264   -2.8820   34.5547 H         1 UNK         0.0300 
     50 H50        -7.9520   -4.5690   34.9811 H         1 UNK         0.0300 
     51 H51        -6.8057   -3.3219   35.5008 H         1 UNK         0.0300 
@<TRIPOS>BOND
     1    1    2 ar   
     2    1    3 ar   
     3    1   27 1    
     4    2    4 ar   
     5    2   28 1    
     6    3    5 ar   
     7    3   29 1    
     8    4    9 ar   
     9    4   30 1    
    10    5    9 ar   
    11    5   31 1    
    12    6    8 ar   
    13    6   10 ar   
    14    6   32 1    
    15    7    8 ar   
    16    7   11 ar   
    17    7   33 1    
    18    8   13 1    
    19    9   18 1    
    20   10   12 ar   
    21   10   24 1    
    22   11   12 ar   
    23   11   25 1    
    24   12   26 1    
    25   13   22 am   BACKBONE|DICT|INTERRES
    26   13   23 2    
    27   14   15 1    
    28   14   16 1    
    29   14   34 1    
    30   14   35 1    
    31   15   18 1    
    32   15   36 1    
    33   15   37 1    
    34   16   22 1    
    35   16   38 1    
    36   16   39 1    
    37   17   18 1    
    38   17   22 1    
    39   17   40 1    
    40   17   41 1    
    41   18   42 1    
    42   19   24 1    
    43   19   43 1    
    44   19   44 1    
    45   19   45 1    
    46   20   25 1    
    47   20   46 1    
    48   20   47 1    
    49   20   48 1    
    50   21   26 1    
    51   21   49 1    
    52   21   50 1    
    53   21   51 1    
@<TRIPOS>SUBSTRUCTURE
     1 UNK         1 GROUP             0       ****    0 ROOT    
@<TRIPOS>MOLECULE
ZINC00910576_275
38   39    1
SMALL
USER_CHARGES


@<TRIPOS>ATOM
      1 C1         -9.8676   -7.0215   39.4250 C.ar      1 UNK        -0.1150 
      2 C2        -10.3118   -6.2492   38.3363 C.ar      1 UNK        -0.1150 
      3 C3        -10.6155   -9.0394   38.2951 C.ar      1 UNK        -0.1150 
      4 C4         -7.9942  -12.2453   36.5448 C.ar      1 UNK        -0.1150 
      5 C5         -7.0494  -14.1456   37.7383 C.ar      1 UNK        -0.1150 
      6 C6         -7.1402  -14.1621   35.3003 C.ar      1 UNK        -0.1150 
      7 C7        -10.0041   -8.4248   39.4123 C.ar      1 UNK        -0.1150 
      8 C8         -7.6482  -12.8686   37.7671 C.ar      1 UNK         0.2000 
      9 C9        -10.9061   -6.8673   37.2089 C.ar      1 UNK         0.0850 
     10 C10       -11.0597   -8.2725   37.1892 C.ar      1 UNK         0.0850 
     11 C11        -7.7429  -12.8910   35.3187 C.ar      1 UNK         0.1800 
     12 C12        -6.7935  -14.7889   36.5112 C.ar      1 UNK         0.1800 
     13 C13        -8.9841  -10.5835   40.3793 C.2       1 UNK        -0.1150 
     14 C14        -8.3955  -10.9964   39.2399 C.2       1 UNK        -0.0970 
     15 C15        -9.5079   -9.2128   40.5820 C.2       1 UNK         0.5850 
     16 C16       -11.2243   -4.7588   36.0958 C.3       1 UNK         0.1100 
     17 C17       -11.7983  -10.2310   35.9965 C.3       1 UNK         0.1100 
     18 N18        -7.8965  -12.2714   39.0128 N.pl3     1 UNK        -0.5717 
     19 O19        -9.5036   -8.7241   41.7107 O.2       1 UNK        -0.4700 
     20 O20       -11.3570   -6.1718   36.1060 O.3       1 UNK        -0.2850 
     21 O21       -11.6470   -8.8217   36.0677 O.3       1 UNK        -0.2850 
     22 Cl22       -8.1821  -12.1239   33.8377 Cl        1 UNK        -0.1800 
     23 Cl23       -6.0580  -16.3489   36.4944 Cl        1 UNK        -0.1800 
     24 H24        -9.4151   -6.5300   40.2756 H         1 UNK         0.1150 
     25 H25       -10.1824   -5.1797   38.3914 H         1 UNK         0.1150 
     26 H26       -10.7471  -10.1099   38.3038 H         1 UNK         0.1150 
     27 H27        -8.4640  -11.2744   36.5207 H         1 UNK         0.1150 
     28 H28        -6.7769  -14.6446   38.6568 H         1 UNK         0.1150 
     29 H29        -6.9468  -14.6560   34.3593 H         1 UNK         0.1150 
     30 H30        -9.0826  -11.2567   41.2173 H         1 UNK         0.1150 
     31 H31        -8.2613  -10.3157   38.4113 H         1 UNK         0.1150 
     32 H32       -11.6272   -4.3679   35.1616 H         1 UNK         0.0300 
     33 H33       -10.1780   -4.4560   36.1554 H         1 UNK         0.0300 
     34 H34       -11.7830   -4.2999   36.9124 H         1 UNK         0.0300 
     35 H35       -12.2635  -10.4935   35.0463 H         1 UNK         0.0300 
     36 H36       -12.4439  -10.6035   36.7926 H         1 UNK         0.0300 
     37 H37       -10.8348  -10.7395   36.0416 H         1 UNK         0.0300 
     38 H38        -7.7638  -12.8676   39.8197 H         1 UNK         0.3537 
@<TRIPOS>BOND
     1    1    2 ar   
     2    1    7 ar   
     3    1   24 1    
     4    2    9 ar   
     5    2   25 1    
     6    3    7 ar   
     7    3   10 ar   
     8    3   26 1    
     9    4    8 ar   
    10    4   11 ar   
    11    4   27 1    
    12    5    8 ar   
    13    5   12 ar   
    14    5   28 1    
    15    6   11 ar   
    16    6   12 ar   
    17    6   29 1    
    18    7   15 1    
    19    8   18 1    
    20    9   10 ar   
    21    9   20 1    
    22   10   21 1    
    23   11   22 1    
    24   12   23 1    
    25   13   14 2    
    26   13   15 1    
    27   13   30 1    
    28   14   18 1    
    29   14   31 1    
    30   15   19 2    
    31   16   20 1    
    32   16   32 1    
    33   16   33 1    
    34   16   34 1    
    35   17   21 1    
    36   17   35 1    
    37   17   36 1    
    38   17   37 1    
    39   18   38 1    
@<TRIPOS>SUBSTRUCTURE
     1 UNK         1 GROUP             0       ****    0 ROOT    
@<TRIPOS>MOLECULE
ZINC00910667_7
41   43    1
SMALL
USER_CHARGES


@<TRIPOS>ATOM
      1 C1         -6.1032  -13.4869   35.4562 C.ar      1 UNK        -0.1150 
      2 C2         -5.8714  -14.0643   36.7208 C.ar      1 UNK        -0.1150 
      3 C3         -6.7607  -12.2449   35.3541 C.ar      1 UNK        -0.1150 
      4 C4        -10.7721   -7.4506   37.5903 C.ar      1 UNK        -0.1150 
      5 C5         -6.2952  -13.4026   37.8908 C.ar      1 UNK        -0.1150 
      6 C6         -7.1894  -11.5745   36.5167 C.ar      1 UNK        -0.1150 
      7 C7        -10.2423   -8.3026   38.5766 C.ar      1 UNK        -0.1150 
      8 C8        -10.3762   -6.1012   37.5412 C.ar      1 UNK        -0.1150 
      9 C9         -8.9280   -6.4508   39.4645 C.ar      1 UNK        -0.1150 
     10 C10        -6.9546  -12.1571   37.7827 C.ar      1 UNK         0.0631 
     11 C11        -9.3002   -7.8125   39.5096 C.ar      1 UNK        -0.1150 
     12 C12        -9.4572   -5.5852   38.4753 C.ar      1 UNK         0.0850 
     13 C13        -7.4053  -11.4460   38.9999 C.2       1 UNK         0.1657 
     14 C14        -8.7434   -8.6957   40.5955 C.2       1 UNK         0.6150 
     15 C15        -7.1861  -12.0043   40.3626 C.3       1 UNK        -0.0721 
     16 C16        -7.8603  -10.9454   41.2466 C.3       1 UNK         0.4650 
     17 C17        -8.2097   -3.7027   39.2866 C.3       1 UNK         0.1100 
     18 C18        -9.0783  -11.5204   42.0317 C.3       1 UNK         0.6171 
     19 N19        -7.9985  -10.3111   38.9942 N.2       1 UNK        -0.2833 
     20 N20        -8.2826   -9.9269   40.2688 N.am      1 UNK        -0.1934 
     21 O21        -8.6607   -8.2581   41.7442 O.2       1 UNK        -0.5000 
     22 O22        -6.8972  -10.4461   42.1660 O.3       1 UNK        -0.6936 
     23 O23        -9.1345   -4.2510   38.3588 O.3       1 UNK        -0.2850 
     24 F24        -8.6974  -12.5749   42.7545 F         1 UNK        -0.2057 
     25 F25        -9.6140  -10.6202   42.8548 F         1 UNK        -0.2057 
     26 F26       -10.0243  -11.9246   41.1819 F         1 UNK        -0.2057 
     27 H27        -5.7744  -13.9968   34.5617 H         1 UNK         0.1150 
     28 H28        -5.3649  -15.0162   36.7924 H         1 UNK         0.1150 
     29 H29        -6.9356  -11.8037   34.3832 H         1 UNK         0.1150 
     30 H30       -11.4854   -7.8297   36.8732 H         1 UNK         0.1150 
     31 H31        -6.1025  -13.8638   38.8479 H         1 UNK         0.1150 
     32 H32        -7.6900  -10.6206   36.4243 H         1 UNK         0.1150 
     33 H33       -10.5594   -9.3351   38.6141 H         1 UNK         0.1150 
     34 H34       -10.7858   -5.4491   36.7838 H         1 UNK         0.1150 
     35 H35        -8.2281   -6.0937   40.2050 H         1 UNK         0.1150 
     36 H36        -7.6587  -12.9813   40.4649 H         1 UNK         0.0600 
     37 H37        -6.1214  -12.1079   40.5745 H         1 UNK         0.0600 
     38 H38        -8.0546   -2.6483   39.0587 H         1 UNK         0.0300 
     39 H39        -7.2405   -4.1992   39.2243 H         1 UNK         0.0300 
     40 H40        -8.5849   -3.7674   40.3090 H         1 UNK         0.0300 
     41 H41        -7.2988   -9.6876   42.5791 H         1 UNK         0.4286 
@<TRIPOS>BOND
     1    1    2 ar   
     2    1    3 ar   
     3    1   27 1    
     4    2    5 ar   
     5    2   28 1    
     6    3    6 ar   
     7    3   29 1    
     8    4    7 ar   
     9    4    8 ar   
    10    4   30 1    
    11    5   10 ar   
    12    5   31 1    
    13    6   10 ar   
    14    6   32 1    
    15    7   11 ar   
    16    7   33 1    
    17    8   12 ar   
    18    8   34 1    
    19    9   11 ar   
    20    9   12 ar   
    21    9   35 1    
    22   10   13 1    
    23   11   14 1    
    24   12   23 1    
    25   13   15 1    
    26   13   19 2    
    27   14   20 am   BACKBONE|DICT|INTERRES
    28   14   21 2    
    29   15   16 1    
    30   15   36 1    
    31   15   37 1    
    32   16   18 1    
    33   16   20 1    
    34   16   22 1    
    35   17   23 1    
    36   17   38 1    
    37   17   39 1    
    38   17   40 1    
    39   18   24 1    
    40   18   25 1    
    41   18   26 1    
    42   19   20 1    
    43   22   41 1    
@<TRIPOS>SUBSTRUCTURE
     1 UNK         1 GROUP             0       ****    0 ROOT    
@<TRIPOS>MOLECULE
ZINC00910691_15
45   47    1
SMALL
USER_CHARGES


@<TRIPOS>ATOM
      1 C1        -10.4245   -7.4089   37.3253 C.ar      1 UNK        -0.1150 
      2 C2         -6.0932  -13.4317   38.0854 C.ar      1 UNK        -0.1150 
      3 C3         -6.8961  -11.6388   36.6206 C.ar      1 UNK        -0.1150 
      4 C4        -10.0264   -8.2794   38.3566 C.ar      1 UNK        -0.1150 
      5 C5        -10.0045   -6.0659   37.3381 C.ar      1 UNK        -0.1150 
      6 C6         -5.5671  -14.0987   36.9619 C.ar      1 UNK        -0.1150 
      7 C7         -6.3648  -12.3157   35.5051 C.ar      1 UNK        -0.1150 
      8 C8         -8.7973   -6.4583   39.4136 C.ar      1 UNK        -0.1150 
      9 C9         -6.7586  -12.1996   37.9086 C.ar      1 UNK         0.0631 
     10 C10        -9.1924   -7.8142   39.3990 C.ar      1 UNK        -0.1150 
     11 C11        -5.6941  -13.5544   35.6675 C.ar      1 UNK         0.0850 
     12 C12        -9.1938   -5.5740   38.3796 C.ar      1 UNK         0.0850 
     13 C13        -7.3172  -11.4804   39.0750 C.2       1 UNK         0.1657 
     14 C14        -8.7793   -8.7161   40.5329 C.2       1 UNK         0.6150 
     15 C15        -7.2439  -12.0416   40.4519 C.3       1 UNK        -0.0721 
     16 C16        -8.0004  -10.9800   41.2626 C.3       1 UNK         0.4650 
     17 C17        -5.2432  -13.7530   33.3183 C.3       1 UNK         0.1100 
     18 C18        -8.0436   -3.7142   39.3676 C.3       1 UNK         0.1100 
     19 C19        -9.3038  -11.5452   41.9048 C.3       1 UNK         0.6171 
     20 N20        -7.8923  -10.3381   39.0105 N.2       1 UNK        -0.2833 
     21 N21        -8.3011   -9.9519   40.2504 N.am      1 UNK        -0.1934 
     22 O22        -8.8250   -8.2892   41.6876 O.2       1 UNK        -0.5000 
     23 O23        -7.1387  -10.4974   42.2858 O.3       1 UNK        -0.6936 
     24 O24        -5.1451  -14.2798   34.6335 O.3       1 UNK        -0.2850 
     25 O25        -8.8399   -4.2441   38.3178 O.3       1 UNK        -0.2850 
     26 F26        -9.0176  -12.6111   42.6540 F         1 UNK        -0.2057 
     27 F27        -9.9135  -10.6445   42.6741 F         1 UNK        -0.2057 
     28 F28       -10.1570  -11.9285   40.9533 F         1 UNK        -0.2057 
     29 H29       -11.0557   -7.7685   36.5259 H         1 UNK         0.1150 
     30 H30        -5.9713  -13.8801   39.0598 H         1 UNK         0.1150 
     31 H31        -7.4017  -10.6946   36.4745 H         1 UNK         0.1150 
     32 H32       -10.3613   -9.3068   38.3448 H         1 UNK         0.1150 
     33 H33       -10.3127   -5.3997   36.5457 H         1 UNK         0.1150 
     34 H34        -5.0551  -15.0412   37.0903 H         1 UNK         0.1150 
     35 H35        -6.4844  -11.8606   34.5340 H         1 UNK         0.1150 
     36 H36        -8.1834   -6.1201   40.2350 H         1 UNK         0.1150 
     37 H37        -7.7294  -13.0163   40.5033 H         1 UNK         0.0600 
     38 H38        -6.2074  -12.1510   40.7729 H         1 UNK         0.0600 
     39 H39        -4.7574  -14.4348   32.6205 H         1 UNK         0.0300 
     40 H40        -4.7422  -12.7874   33.2373 H         1 UNK         0.0300 
     41 H41        -6.2835  -13.6491   33.0070 H         1 UNK         0.0300 
     42 H42        -7.8577   -2.6570   39.1795 H         1 UNK         0.0300 
     43 H43        -7.0757   -4.2139   39.4253 H         1 UNK         0.0300 
     44 H44        -8.5501   -3.7934   40.3306 H         1 UNK         0.0300 
     45 H45        -7.5823   -9.7465   42.6683 H         1 UNK         0.4286 
@<TRIPOS>BOND
     1    1    4 ar   
     2    1    5 ar   
     3    1   29 1    
     4    2    6 ar   
     5    2    9 ar   
     6    2   30 1    
     7    3    7 ar   
     8    3    9 ar   
     9    3   31 1    
    10    4   10 ar   
    11    4   32 1    
    12    5   12 ar   
    13    5   33 1    
    14    6   11 ar   
    15    6   34 1    
    16    7   11 ar   
    17    7   35 1    
    18    8   10 ar   
    19    8   12 ar   
    20    8   36 1    
    21    9   13 1    
    22   10   14 1    
    23   11   24 1    
    24   12   25 1    
    25   13   15 1    
    26   13   20 2    
    27   14   21 am   BACKBONE|DICT|INTERRES
    28   14   22 2    
    29   15   16 1    
    30   15   37 1    
    31   15   38 1    
    32   16   19 1    
    33   16   21 1    
    34   16   23 1    
    35   17   24 1    
    36   17   39 1    
    37   17   40 1    
    38   17   41 1    
    39   18   25 1    
    40   18   42 1    
    41   18   43 1    
    42   18   44 1    
    43   19   26 1    
    44   19   27 1    
    45   19   28 1    
    46   20   21 1    
    47   23   45 1    
@<TRIPOS>SUBSTRUCTURE
     1 UNK         1 GROUP             0       ****    0 ROOT    
@<TRIPOS>MOLECULE
ZINC00910750_19
45   47    1
SMALL
USER_CHARGES


@<TRIPOS>ATOM
      1 C1         -6.9972  -12.5574   35.1001 C.ar      1 UNK        -0.1150 
      2 C2         -7.3799  -11.9137   36.2918 C.ar      1 UNK        -0.1150 
      3 C3        -10.2691   -8.5948   38.5126 C.ar      1 UNK        -0.1150 
      4 C4         -8.8879   -6.8583   39.5068 C.ar      1 UNK        -0.1150 
      5 C5         -6.4478  -13.8547   35.1378 C.ar      1 UNK        -0.1150 
      6 C6        -10.7637   -7.6679   37.5739 C.ar      1 UNK        -0.1150 
      7 C7         -9.3828   -5.9317   38.5684 C.ar      1 UNK        -0.1150 
      8 C8         -6.6536  -13.8805   37.5660 C.ar      1 UNK        -0.1150 
      9 C9         -7.2057  -12.5810   37.5236 C.ar      1 UNK         0.0631 
     10 C10        -9.3116   -8.2037   39.4764 C.ar      1 UNK        -0.1150 
     11 C11       -10.3199   -6.3225   37.5921 C.ar      1 UNK         0.0850 
     12 C12        -6.2718  -14.5279   36.3738 C.ar      1 UNK         0.0850 
     13 C13        -7.6117  -11.9057   38.7759 C.2       1 UNK         0.1657 
     14 C14        -8.7989   -9.1709   40.5133 C.2       1 UNK         0.6150 
     15 C15        -7.4178  -12.5400   40.1091 C.3       1 UNK        -0.0721 
     16 C16        -8.0391  -11.4947   41.0458 C.3       1 UNK         0.4650 
     17 C17       -11.7089   -5.7128   35.7326 C.3       1 UNK         0.1100 
     18 C18        -5.3449  -16.4744   35.3179 C.3       1 UNK         0.1100 
     19 C19        -9.2915  -12.0441   41.7949 C.3       1 UNK         0.6171 
     20 N20        -8.1413  -10.7408   38.8281 N.2       1 UNK        -0.2833 
     21 N21        -8.4018  -10.4056   40.1218 N.am      1 UNK        -0.1934 
     22 O22        -8.6969   -8.8006   41.6838 O.2       1 UNK        -0.5000 
     23 O23        -7.0564  -11.0966   41.9934 O.3       1 UNK        -0.6936 
     24 O24       -10.7493   -5.3511   36.7146 O.3       1 UNK        -0.2850 
     25 O25        -5.7455  -15.7948   36.4989 O.3       1 UNK        -0.2850 
     26 F26        -8.9737  -13.1547   42.4623 F         1 UNK        -0.2057 
     27 F27        -9.7845  -11.1614   42.6624 F         1 UNK        -0.2057 
     28 F28       -10.2517  -12.3509   40.9206 F         1 UNK        -0.2057 
     29 H29        -7.1255  -12.0540   34.1529 H         1 UNK         0.1150 
     30 H30        -7.7993  -10.9178   36.2482 H         1 UNK         0.1150 
     31 H31       -10.6286   -9.6133   38.4898 H         1 UNK         0.1150 
     32 H32        -8.1779   -6.5347   40.2550 H         1 UNK         0.1150 
     33 H33        -6.1681  -14.3124   34.2012 H         1 UNK         0.1150 
     34 H34       -11.4875   -8.0145   36.8526 H         1 UNK         0.1150 
     35 H35        -9.0445   -4.9063   38.5999 H         1 UNK         0.1150 
     36 H36        -6.5105  -14.4045   38.4987 H         1 UNK         0.1150 
     37 H37        -7.9366  -13.4970   40.1676 H         1 UNK         0.0600 
     38 H38        -6.3587  -12.7050   40.3108 H         1 UNK         0.0600 
     39 H39       -11.9468   -4.8407   35.1239 H         1 UNK         0.0300 
     40 H40       -12.6366   -6.0580   36.1908 H         1 UNK         0.0300 
     41 H41       -11.3248   -6.4854   35.0654 H         1 UNK         0.0300 
     42 H42        -4.9572  -17.4581   35.5828 H         1 UNK         0.0300 
     43 H43        -4.5513  -15.9360   34.7979 H         1 UNK         0.0300 
     44 H44        -6.1856  -16.6247   34.6391 H         1 UNK         0.0300 
     45 H45        -7.4171  -10.3368   42.4405 H         1 UNK         0.4286 
@<TRIPOS>BOND
     1    1    2 ar   
     2    1    5 ar   
     3    1   29 1    
     4    2    9 ar   
     5    2   30 1    
     6    3    6 ar   
     7    3   10 ar   
     8    3   31 1    
     9    4    7 ar   
    10    4   10 ar   
    11    4   32 1    
    12    5   12 ar   
    13    5   33 1    
    14    6   11 ar   
    15    6   34 1    
    16    7   11 ar   
    17    7   35 1    
    18    8    9 ar   
    19    8   12 ar   
    20    8   36 1    
    21    9   13 1    
    22   10   14 1    
    23   11   24 1    
    24   12   25 1    
    25   13   15 1    
    26   13   20 2    
    27   14   21 am   BACKBONE|DICT|INTERRES
    28   14   22 2    
    29   15   16 1    
    30   15   37 1    
    31   15   38 1    
    32   16   19 1    
    33   16   21 1    
    34   16   23 1    
    35   17   24 1    
    36   17   39 1    
    37   17   40 1    
    38   17   41 1    
    39   18   25 1    
    40   18   42 1    
    41   18   43 1    
    42   18   44 1    
    43   19   26 1    
    44   19   27 1    
    45   19   28 1    
    46   20   21 1    
    47   23   45 1    
@<TRIPOS>SUBSTRUCTURE
     1 UNK         1 GROUP             0       ****    0 ROOT    
@<TRIPOS>MOLECULE
ZINC00910753_38
45   47    1
SMALL
USER_CHARGES


@<TRIPOS>ATOM
      1 C1         -7.2327  -12.6581   35.1259 C.ar      1 UNK        -0.1150 
      2 C2        -11.0392   -7.7740   37.5516 C.ar      1 UNK        -0.1150 
      3 C3         -7.6028  -11.9883   36.3070 C.ar      1 UNK        -0.1150 
      4 C4        -10.5100   -8.6599   38.5083 C.ar      1 UNK        -0.1150 
      5 C5         -6.6649  -13.9464   35.1877 C.ar      1 UNK        -0.1150 
      6 C6        -10.5919   -6.4406   37.5060 C.ar      1 UNK        -0.1150 
      7 C7         -6.8273  -13.9107   37.6190 C.ar      1 UNK        -0.1150 
      8 C8         -9.0950   -6.8731   39.3746 C.ar      1 UNK        -0.1150 
      9 C9         -7.3975  -12.6201   37.5525 C.ar      1 UNK         0.0631 
     10 C10        -9.5190   -8.2197   39.4153 C.ar      1 UNK        -0.1150 
     11 C11        -6.4575  -14.5842   36.4374 C.ar      1 UNK         0.0850 
     12 C12        -9.6217   -5.9740   38.4143 C.ar      1 UNK         0.0850 
     13 C13        -7.7863  -11.9149   38.7936 C.2       1 UNK         0.1657 
     14 C14        -8.9619   -9.1391   40.4707 C.2       1 UNK         0.6150 
     15 C15        -7.5584  -12.5085   40.1398 C.3       1 UNK        -0.0721 
     16 C16        -8.1477  -11.4311   41.0616 C.3       1 UNK         0.4650 
     17 C17        -5.5235  -16.5449   35.4152 C.3       1 UNK         0.1100 
     18 C18        -8.2665   -4.1558   39.1988 C.3       1 UNK         0.1100 
     19 C19        -9.3578  -11.9609   41.8898 C.3       1 UNK         0.6171 
     20 N20        -8.3278  -10.7550   38.8236 N.2       1 UNK        -0.2833 
     21 N21        -8.5600  -10.3820   40.1122 N.am      1 UNK        -0.1934 
     22 O22        -8.8266   -8.7219   41.6218 O.2       1 UNK        -0.5000 
     23 O23        -7.1268  -10.9865   41.9461 O.3       1 UNK        -0.6936 
     24 O24        -5.9100  -15.8396   36.5857 O.3       1 UNK        -0.2850 
     25 O25        -9.2499   -4.6522   38.3027 O.3       1 UNK        -0.2850 
     26 F26        -9.0000  -13.0480   42.5749 F         1 UNK        -0.2057 
     27 F27        -9.8093  -11.0527   42.7537 F         1 UNK        -0.2057 
     28 F28       -10.3598  -12.2984   41.0759 F         1 UNK        -0.2057 
     29 H29        -7.3841  -12.1815   34.1681 H         1 UNK         0.1150 
     30 H30       -11.7910   -8.1146   36.8548 H         1 UNK         0.1150 
     31 H31        -8.0362  -10.9992   36.2450 H         1 UNK         0.1150 
     32 H32       -10.8657   -9.6799   38.5433 H         1 UNK         0.1150 
     33 H33        -6.3959  -14.4248   34.2583 H         1 UNK         0.1150 
     34 H34       -11.0008   -5.7626   36.7711 H         1 UNK         0.1150 
     35 H35        -6.6609  -14.4079   38.5625 H         1 UNK         0.1150 
     36 H36        -8.3576   -6.5540   40.0959 H         1 UNK         0.1150 
     37 H37        -8.0812  -13.4599   40.2397 H         1 UNK         0.0600 
     38 H38        -6.4956  -12.6749   40.3188 H         1 UNK         0.0600 
     39 H39        -5.1062  -17.5110   35.6989 H         1 UNK         0.0300 
     40 H40        -4.7554  -16.0052   34.8595 H         1 UNK         0.0300 
     41 H41        -6.3774  -16.7334   34.7630 H         1 UNK         0.0300 
     42 H42        -8.0785   -3.1048   38.9800 H         1 UNK         0.0300 
     43 H43        -7.3213   -4.6894   39.0884 H         1 UNK         0.0300 
     44 H44        -8.6010   -4.2220   40.2350 H         1 UNK         0.0300 
     45 H45        -7.4860  -10.2314   42.4016 H         1 UNK         0.4286 
@<TRIPOS>BOND
     1    1    3 ar   
     2    1    5 ar   
     3    1   29 1    
     4    2    4 ar   
     5    2    6 ar   
     6    2   30 1    
     7    3    9 ar   
     8    3   31 1    
     9    4   10 ar   
    10    4   32 1    
    11    5   11 ar   
    12    5   33 1    
    13    6   12 ar   
    14    6   34 1    
    15    7    9 ar   
    16    7   11 ar   
    17    7   35 1    
    18    8   10 ar   
    19    8   12 ar   
    20    8   36 1    
    21    9   13 1    
    22   10   14 1    
    23   11   24 1    
    24   12   25 1    
    25   13   15 1    
    26   13   20 2    
    27   14   21 am   BACKBONE|DICT|INTERRES
    28   14   22 2    
    29   15   16 1    
    30   15   37 1    
    31   15   38 1    
    32   16   19 1    
    33   16   21 1    
    34   16   23 1    
    35   17   24 1    
    36   17   39 1    
    37   17   40 1    
    38   17   41 1    
    39   18   25 1    
    40   18   42 1    
    41   18   43 1    
    42   18   44 1    
    43   19   26 1    
    44   19   27 1    
    45   19   28 1    
    46   20   21 1    
    47   23   45 1    
@<TRIPOS>SUBSTRUCTURE
     1 UNK         1 GROUP             0       ****    0 ROOT    
@<TRIPOS>MOLECULE
ZINC00910755_71
45   47    1
SMALL
USER_CHARGES


@<TRIPOS>ATOM
      1 C1         -7.3208  -13.0916   35.1160 C.ar      1 UNK        -0.1150 
      2 C2         -9.7675   -6.4628   38.6596 C.ar      1 UNK        -0.1150 
      3 C3         -7.6297  -12.4222   36.3147 C.ar      1 UNK        -0.1150 
      4 C4         -9.2900   -7.3846   39.6096 C.ar      1 UNK        -0.1150 
      5 C5         -6.9270  -14.4446   35.1388 C.ar      1 UNK        -0.1150 
      6 C6        -10.5893   -6.9023   37.6051 C.ar      1 UNK        -0.1150 
      7 C7         -7.1486  -14.4774   37.5654 C.ar      1 UNK        -0.1150 
      8 C8        -10.4744   -9.1767   38.4589 C.ar      1 UNK        -0.1150 
      9 C9         -7.5391  -13.1206   37.5380 C.ar      1 UNK         0.0631 
     10 C10        -9.6205   -8.7522   39.5039 C.ar      1 UNK        -0.1150 
     11 C11        -6.8381  -15.1496   36.3663 C.ar      1 UNK         0.0850 
     12 C12       -10.9541   -8.2579   37.4931 C.ar      1 UNK         0.0850 
     13 C13        -7.8634  -12.4165   38.7975 C.2       1 UNK         0.1657 
     14 C14        -9.1204   -9.7156   40.5494 C.2       1 UNK         0.6150 
     15 C15        -7.6794  -13.0564   40.1283 C.3       1 UNK        -0.0721 
     16 C16        -7.9904  -11.8904   41.0793 C.3       1 UNK         0.4650 
     17 C17        -6.1276  -17.1737   35.2884 C.3       1 UNK         0.1100 
     18 C18       -12.1400   -9.9627   36.2911 C.3       1 UNK         0.1100 
     19 C19        -6.7129  -11.3995   41.8319 C.3       1 UNK         0.6171 
     20 N20        -8.3275  -11.2253   38.8590 N.2       1 UNK        -0.2833 
     21 N21        -8.5248  -10.8699   40.1586 N.am      1 UNK        -0.1934 
     22 O22        -9.2410   -9.4146   41.7365 O.2       1 UNK        -0.5000 
     23 O23        -8.9561  -12.3254   42.0271 O.3       1 UNK        -0.6936 
     24 O24        -6.4628  -16.4705   36.4760 O.3       1 UNK        -0.2850 
     25 O25       -11.7683   -8.6000   36.4356 O.3       1 UNK        -0.2850 
     26 F26        -5.8319  -10.8848   40.9727 F         1 UNK        -0.2057 
     27 F27        -6.9908  -10.4789   42.7528 F         1 UNK        -0.2057 
     28 F28        -6.1304  -12.4284   42.4500 F         1 UNK        -0.2057 
     29 H29        -7.3854  -12.5650   34.1748 H         1 UNK         0.1150 
     30 H30        -9.5067   -5.4177   38.7410 H         1 UNK         0.1150 
     31 H31        -7.9287  -11.3833   36.2825 H         1 UNK         0.1150 
     32 H32        -8.6664   -7.0430   40.4242 H         1 UNK         0.1150 
     33 H33        -6.6989  -14.9203   34.1972 H         1 UNK         0.1150 
     34 H34       -10.9527   -6.1917   36.8775 H         1 UNK         0.1150 
     35 H35        -7.0813  -15.0278   38.4917 H         1 UNK         0.1150 
     36 H36       -10.7478  -10.2197   38.4169 H         1 UNK         0.1150 
     37 H37        -8.3687  -13.8925   40.2507 H         1 UNK         0.0600 
     38 H38        -6.6606  -13.4239   40.2517 H         1 UNK         0.0600 
     39 H39        -5.8479  -18.1961   35.5427 H         1 UNK         0.0300 
     40 H40        -5.2771  -16.7165   34.7807 H         1 UNK         0.0300 
     41 H41        -6.9740  -17.2251   34.6021 H         1 UNK         0.0300 
     42 H42       -12.7690  -10.0727   35.4078 H         1 UNK         0.0300 
     43 H43       -12.7145  -10.3118   37.1500 H         1 UNK         0.0300 
     44 H44       -11.2667  -10.6023   36.1560 H         1 UNK         0.0300 
     45 H45        -9.0704  -11.6031   42.6354 H         1 UNK         0.4286 
@<TRIPOS>BOND
     1    1    3 ar   
     2    1    5 ar   
     3    1   29 1    
     4    2    4 ar   
     5    2    6 ar   
     6    2   30 1    
     7    3    9 ar   
     8    3   31 1    
     9    4   10 ar   
    10    4   32 1    
    11    5   11 ar   
    12    5   33 1    
    13    6   12 ar   
    14    6   34 1    
    15    7    9 ar   
    16    7   11 ar   
    17    7   35 1    
    18    8   10 ar   
    19    8   12 ar   
    20    8   36 1    
    21    9   13 1    
    22   10   14 1    
    23   11   24 1    
    24   12   25 1    
    25   13   15 1    
    26   13   20 2    
    27   14   21 am   BACKBONE|DICT|INTERRES
    28   14   22 2    
    29   15   16 1    
    30   15   37 1    
    31   15   38 1    
    32   16   19 1    
    33   16   21 1    
    34   16   23 1    
    35   17   24 1    
    36   17   39 1    
    37   17   40 1    
    38   17   41 1    
    39   18   25 1    
    40   18   42 1    
    41   18   43 1    
    42   18   44 1    
    43   19   26 1    
    44   19   27 1    
    45   19   28 1    
    46   20   21 1    
    47   23   45 1    
@<TRIPOS>SUBSTRUCTURE
     1 UNK         1 GROUP             0       ****    0 ROOT    
@<TRIPOS>MOLECULE
ZINC00991462_37
52   55    1
SMALL
USER_CHARGES


@<TRIPOS>ATOM
      1 C1         -9.1678  -10.1970   43.3249 C.ar      1 UNK        -0.1150 
      2 C2         -9.2918   -9.9198   41.9502 C.ar      1 UNK        -0.1150 
      3 C3         -7.9606   -9.9156   43.9925 C.ar      1 UNK        -0.1150 
      4 C4         -4.2312   -9.9729   35.5510 C.2       1 UNK        -0.0738 
      5 C5         -8.2097   -9.3594   41.2442 C.ar      1 UNK        -0.1150 
      6 C6         -6.8773   -9.3574   43.2861 C.ar      1 UNK        -0.1150 
      7 C7         -4.8121   -9.1234   36.5406 C.2       1 UNK        -0.0738 
      8 C8         -7.9696   -5.7483   38.4000 C.ar      1 UNK        -0.1150 
      9 C9         -6.7277   -3.9337   39.4456 C.ar      1 UNK        -0.1150 
     10 C10        -3.6959  -11.1237   36.0775 C.2       1 UNK        -0.3255 
     11 C11        -7.0980   -5.2934   39.4133 C.ar      1 UNK        -0.1150 
     12 C12        -6.9961   -9.0714   41.9093 C.ar      1 UNK        -0.1150 
     13 C13        -8.4303   -4.8713   37.3894 C.ar      1 UNK         0.0850 
     14 C14        -7.1812   -3.0351   38.4507 C.ar      1 UNK         0.0850 
     15 C15        -8.0179   -3.5178   37.4197 C.ar      1 UNK         0.0850 
     16 C16        -4.6976   -9.6597   37.7986 C.2       1 UNK        -0.0637 
     17 C17        -5.2202   -8.9520   38.9475 C.2       1 UNK         0.2288 
     18 C18        -6.6193   -6.2169   40.5027 C.2       1 UNK         0.6150 
     19 C19        -5.0804   -9.5208   40.3137 C.3       1 UNK        -0.0721 
     20 C20        -5.8112   -8.4700   41.1551 C.3       1 UNK         0.2550 
     21 C21        -9.7016   -6.6152   36.3258 C.3       1 UNK         0.1100 
     22 C22        -6.0750   -1.1681   39.4843 C.3       1 UNK         0.1100 
     23 C23        -7.8022   -2.7949   35.2097 C.3       1 UNK         0.1100 
     24 N24        -5.8258   -7.8245   38.9038 N.2       1 UNK        -0.2833 
     25 N25        -6.1886   -7.4558   40.1631 N.am      1 UNK        -0.1934 
     26 O26        -6.5666   -5.8025   41.6603 O.2       1 UNK        -0.5000 
     27 O27        -9.2757   -5.2619   36.3705 O.3       1 UNK        -0.2850 
     28 O28        -6.8435   -1.6978   38.4151 O.3       1 UNK        -0.2850 
     29 O29        -8.4510   -2.6374   36.4606 O.3       1 UNK        -0.2850 
     30 S30        -3.8885  -11.2011   37.8114 S.3       1 UNK         0.0328 
     31 H31        -9.9995  -10.6228   43.8677 H         1 UNK         0.1150 
     32 H32       -10.2186  -10.1345   41.4380 H         1 UNK         0.1150 
     33 H33        -7.8667  -10.1237   45.0485 H         1 UNK         0.1150 
     34 H34        -4.2265   -9.7120   34.5020 H         1 UNK         0.1211 
     35 H35        -8.3156   -9.1510   40.1893 H         1 UNK         0.1150 
     36 H36        -5.9578   -9.1401   43.8101 H         1 UNK         0.1150 
     37 H37        -5.2757   -8.1775   36.2955 H         1 UNK         0.1211 
     38 H38        -8.2712   -6.7839   38.4187 H         1 UNK         0.1150 
     39 H39        -6.0870   -3.6039   40.2495 H         1 UNK         0.1150 
     40 H40        -3.2001  -11.9301   35.5555 H         1 UNK         0.2618 
     41 H41        -5.5409  -10.5075   40.3781 H         1 UNK         0.0600 
     42 H42        -4.0311   -9.6035   40.5970 H         1 UNK         0.0600 
     43 H43        -5.1154   -8.0230   41.8683 H         1 UNK         0.0600 
     44 H44       -10.3572   -6.7565   35.4668 H         1 UNK         0.0300 
     45 H45       -10.2665   -6.8861   37.2187 H         1 UNK         0.0300 
     46 H46        -8.8564   -7.2953   36.2107 H         1 UNK         0.0300 
     47 H47        -5.9330   -0.0990   39.3278 H         1 UNK         0.0300 
     48 H48        -5.0873   -1.6284   39.5313 H         1 UNK         0.0300 
     49 H49        -6.5813   -1.2967   40.4421 H         1 UNK         0.0300 
     50 H50        -8.0964   -1.9833   34.5447 H         1 UNK         0.0300 
     51 H51        -8.0717   -3.7344   34.7271 H         1 UNK         0.0300 
     52 H52        -6.7175   -2.7580   35.3217 H         1 UNK         0.0300 
@<TRIPOS>BOND
     1    1    2 ar   
     2    1    3 ar   
     3    1   31 1    
     4    2    5 ar   
     5    2   32 1    
     6    3    6 ar   
     7    3   33 1    
     8    4    7 1    
     9    4   10 2    
    10    4   34 1    
    11    5   12 ar   
    12    5   35 1    
    13    6   12 ar   
    14    6   36 1    
    15    7   16 2    
    16    7   37 1    
    17    8   11 ar   
    18    8   13 ar   
    19    8   38 1    
    20    9   11 ar   
    21    9   14 ar   
    22    9   39 1    
    23   10   30 1    
    24   10   40 1    
    25   11   18 1    
    26   12   20 1    
    27   13   15 ar   
    28   13   27 1    
    29   14   15 ar   
    30   14   28 1    
    31   15   29 1    
    32   16   17 1    
    33   16   30 1    
    34   17   19 1    
    35   17   24 2    
    36   18   25 am   BACKBONE|DICT|INTERRES
    37   18   26 2    
    38   19   20 1    
    39   19   41 1    
    40   19   42 1    
    41   20   25 1    
    42   20   43 1    
    43   21   27 1    
    44   21   44 1    
    45   21   45 1    
    46   21   46 1    
    47   22   28 1    
    48   22   47 1    
    49   22   48 1    
    50   22   49 1    
    51   23   29 1    
    52   23   50 1    
    53   23   51 1    
    54   23   52 1    
    55   24   25 1    
@<TRIPOS>SUBSTRUCTURE
     1 UNK         1 GROUP             0       ****    0 ROOT    
@<TRIPOS>MOLECULE
ZINC01011982_31
46   48    1
SMALL
USER_CHARGES


@<TRIPOS>ATOM
      1 C1         -8.8878   -6.1819   39.4048 C.ar      1 UNK        -0.1150 
      2 C2        -10.2267   -8.0643   38.6512 C.ar      1 UNK        -0.1150 
      3 C3         -9.2441   -7.5396   39.5145 C.ar      1 UNK        -0.1150 
      4 C4         -9.4621   -5.3472   38.4143 C.ar      1 UNK         0.0850 
      5 C5        -10.8101   -7.2586   37.6459 C.ar      1 UNK         0.0850 
      6 C6        -10.4138   -5.9070   37.5130 C.ar      1 UNK         0.0850 
      7 C7         -7.3669  -11.1846   39.0268 C.2       1 UNK         0.2288 
      8 C8         -8.6293   -8.3808   40.6016 C.2       1 UNK         0.6150 
      9 C9         -7.0307  -11.6635   40.3921 C.3       1 UNK        -0.0721 
     10 C10        -6.9833  -11.2745   36.4131 C.3       1 UNK        -0.1200 
     11 C11        -5.6941  -11.7045   37.0729 C.3       1 UNK        -0.1200 
     12 C12        -7.0120  -11.9351   37.7749 C.3       1 UNK        -0.0600 
     13 C13        -7.6616  -10.5854   41.2826 C.3       1 UNK         0.4650 
     14 C14        -8.2394   -3.4358   39.2434 C.3       1 UNK         0.1100 
     15 C15       -12.1740   -9.0782   36.8523 C.3       1 UNK         0.1100 
     16 C16       -10.2902   -4.2043   35.8154 C.3       1 UNK         0.1100 
     17 C17        -8.8105  -11.1518   42.1702 C.3       1 UNK         0.6171 
     18 N18        -7.9805  -10.0614   39.0237 N.2       1 UNK        -0.2833 
     19 N19        -8.1696   -9.6181   40.2964 N.am      1 UNK        -0.1934 
     20 O20        -8.5000   -7.9021   41.7288 O.2       1 UNK        -0.5000 
     21 O21        -6.6469  -10.0338   42.1125 O.3       1 UNK        -0.6936 
     22 O22        -9.1483   -4.0058   38.3129 O.3       1 UNK        -0.2850 
     23 O23       -11.7589   -7.7244   36.7575 O.3       1 UNK        -0.2850 
     24 O24       -11.0337   -5.2002   36.5014 O.3       1 UNK        -0.2850 
     25 F25        -8.3625  -12.1770   42.8963 F         1 UNK        -0.2057 
     26 F26        -9.2987  -10.2321   43.0010 F         1 UNK        -0.2057 
     27 F27        -9.8079  -11.5950   41.4026 F         1 UNK        -0.2057 
     28 H28        -8.1639   -5.8018   40.1093 H         1 UNK         0.1150 
     29 H29       -10.5151   -9.0965   38.7742 H         1 UNK         0.1150 
     30 H30        -7.4560  -12.6510   40.5705 H         1 UNK         0.0600 
     31 H31        -5.9496  -11.7300   40.5171 H         1 UNK         0.0600 
     32 H32        -7.1812  -10.2053   36.3525 H         1 UNK         0.0600 
     33 H33        -7.3327  -11.8584   35.5640 H         1 UNK         0.0600 
     34 H34        -5.1836  -12.5734   36.6623 H         1 UNK         0.0600 
     35 H35        -5.0429  -10.9184   37.4521 H         1 UNK         0.0600 
     36 H36        -7.3891  -12.9553   37.8150 H         1 UNK         0.0600 
     37 H37        -8.1222   -2.3746   39.0243 H         1 UNK         0.0300 
     38 H38        -7.2533   -3.8966   39.1717 H         1 UNK         0.0300 
     39 H39        -8.6082   -3.5208   40.2665 H         1 UNK         0.0300 
     40 H40       -12.9178   -9.2796   36.0817 H         1 UNK         0.0300 
     41 H41       -12.6363   -9.2863   37.8181 H         1 UNK         0.0300 
     42 H42       -11.3400   -9.7630   36.6926 H         1 UNK         0.0300 
     43 H43       -10.6989   -4.0841   34.8123 H         1 UNK         0.0300 
     44 H44        -9.2378   -4.4737   35.7103 H         1 UNK         0.0300 
     45 H45       -10.3708   -3.2386   36.3148 H         1 UNK         0.0300 
     46 H46        -7.0483   -9.3001   42.5677 H         1 UNK         0.4286 
@<TRIPOS>BOND
     1    1    3 ar   
     2    1    4 ar   
     3    1   28 1    
     4    2    3 ar   
     5    2    5 ar   
     6    2   29 1    
     7    3    8 1    
     8    4    6 ar   
     9    4   22 1    
    10    5    6 ar   
    11    5   23 1    
    12    6   24 1    
    13    7    9 1    
    14    7   12 1    
    15    7   18 2    
    16    8   19 am   BACKBONE|DICT|INTERRES
    17    8   20 2    
    18    9   13 1    
    19    9   30 1    
    20    9   31 1    
    21   10   11 1    
    22   10   12 1    
    23   10   32 1    
    24   10   33 1    
    25   11   12 1    
    26   11   34 1    
    27   11   35 1    
    28   12   36 1    
    29   13   17 1    
    30   13   19 1    
    31   13   21 1    
    32   14   22 1    
    33   14   37 1    
    34   14   38 1    
    35   14   39 1    
    36   15   23 1    
    37   15   40 1    
    38   15   41 1    
    39   15   42 1    
    40   16   24 1    
    41   16   43 1    
    42   16   44 1    
    43   16   45 1    
    44   17   25 1    
    45   17   26 1    
    46   17   27 1    
    47   18   19 1    
    48   21   46 1    
@<TRIPOS>SUBSTRUCTURE
     1 UNK         1 GROUP             0       ****    0 ROOT    
@<TRIPOS>MOLECULE
ZINC01011983_32
46   48    1
SMALL
USER_CHARGES


@<TRIPOS>ATOM
      1 C1        -10.1840   -8.3051   38.6106 C.ar      1 UNK        -0.1150 
      2 C2         -8.9311   -6.4237   39.4998 C.ar      1 UNK        -0.1150 
      3 C3         -9.2862   -7.7843   39.5635 C.ar      1 UNK        -0.1150 
      4 C4        -10.6770   -7.4937   37.5627 C.ar      1 UNK         0.0850 
      5 C5         -9.4170   -5.5821   38.4684 C.ar      1 UNK         0.0850 
      6 C6        -10.2774   -6.1390   37.4771 C.ar      1 UNK         0.0850 
      7 C7         -7.5771  -11.5211   39.2167 C.2       1 UNK         0.2288 
      8 C8         -8.7679   -8.6293   40.6969 C.2       1 UNK         0.6150 
      9 C9         -7.3837  -12.0111   40.6049 C.3       1 UNK        -0.0721 
     10 C10        -7.0983  -11.7282   36.6268 C.3       1 UNK        -0.1200 
     11 C11        -5.9199  -12.3350   37.3509 C.3       1 UNK        -0.1200 
     12 C12        -7.2863  -12.3459   37.9959 C.3       1 UNK        -0.0600 
     13 C13        -7.6567  -10.7500   41.4361 C.3       1 UNK         0.4650 
     14 C14       -11.9542   -9.3133   36.6363 C.3       1 UNK         0.1100 
     15 C15        -8.3036   -3.6691   39.4376 C.3       1 UNK         0.1100 
     16 C16       -10.0306   -4.3965   35.8294 C.3       1 UNK         0.1100 
     17 C17        -6.3525  -10.2012   42.0959 C.3       1 UNK         0.6171 
     18 N18        -8.0360  -10.3277   39.1673 N.2       1 UNK        -0.2833 
     19 N19        -8.2031   -9.8311   40.4237 N.am      1 UNK        -0.1934 
     20 O20        -8.8426   -8.1886   41.8430 O.2       1 UNK        -0.5000 
     21 O21        -8.6017  -11.0671   42.4496 O.3       1 UNK        -0.6936 
     22 O22       -11.5394   -7.9568   36.5889 O.3       1 UNK        -0.2850 
     23 O23        -9.1034   -4.2379   38.4107 O.3       1 UNK        -0.2850 
     24 O24       -10.8062   -5.4300   36.4162 O.3       1 UNK        -0.2850 
     25 F25        -5.4916   -9.7934   41.1624 F         1 UNK        -0.2057 
     26 F26        -6.5929   -9.1846   42.9213 F         1 UNK        -0.2057 
     27 F27        -5.7648  -11.1676   42.8029 F         1 UNK        -0.2057 
     28 H28       -10.4792   -9.3387   38.7014 H         1 UNK         0.1150 
     29 H29        -8.2788   -6.0468   40.2728 H         1 UNK         0.1150 
     30 H30        -8.0887  -12.8142   40.8214 H         1 UNK         0.0600 
     31 H31        -6.3739  -12.3964   40.7448 H         1 UNK         0.0600 
     32 H32        -7.1261  -10.6431   36.5398 H         1 UNK         0.0600 
     33 H33        -7.4992  -12.2707   35.7729 H         1 UNK         0.0600 
     34 H34        -5.5317  -13.2798   36.9759 H         1 UNK         0.0600 
     35 H35        -5.1724  -11.6489   37.7462 H         1 UNK         0.0600 
     36 H36        -7.8172  -13.2950   38.0348 H         1 UNK         0.0600 
     37 H37       -12.6320   -9.5097   35.8056 H         1 UNK         0.0300 
     38 H38       -12.4931   -9.5345   37.5586 H         1 UNK         0.0300 
     39 H39       -11.1065   -9.9928   36.5383 H         1 UNK         0.0300 
     40 H40        -8.1778   -2.6039   39.2444 H         1 UNK         0.0300 
     41 H41        -7.3091   -4.1165   39.4641 H         1 UNK         0.0300 
     42 H42        -8.7759   -3.7713   40.4156 H         1 UNK         0.0300 
     43 H43       -10.3433   -4.2620   34.7942 H         1 UNK         0.0300 
     44 H44        -8.9654   -4.6315   35.8218 H         1 UNK         0.0300 
     45 H45       -10.1905   -3.4475   36.3409 H         1 UNK         0.0300 
     46 H46        -8.6689  -10.2942   42.9999 H         1 UNK         0.4286 
@<TRIPOS>BOND
     1    1    3 ar   
     2    1    4 ar   
     3    1   28 1    
     4    2    3 ar   
     5    2    5 ar   
     6    2   29 1    
     7    3    8 1    
     8    4    6 ar   
     9    4   22 1    
    10    5    6 ar   
    11    5   23 1    
    12    6   24 1    
    13    7    9 1    
    14    7   12 1    
    15    7   18 2    
    16    8   19 am   BACKBONE|DICT|INTERRES
    17    8   20 2    
    18    9   13 1    
    19    9   30 1    
    20    9   31 1    
    21   10   11 1    
    22   10   12 1    
    23   10   32 1    
    24   10   33 1    
    25   11   12 1    
    26   11   34 1    
    27   11   35 1    
    28   12   36 1    
    29   13   17 1    
    30   13   19 1    
    31   13   21 1    
    32   14   22 1    
    33   14   37 1    
    34   14   38 1    
    35   14   39 1    
    36   15   23 1    
    37   15   40 1    
    38   15   41 1    
    39   15   42 1    
    40   16   24 1    
    41   16   43 1    
    42   16   44 1    
    43   16   45 1    
    44   17   25 1    
    45   17   26 1    
    46   17   27 1    
    47   18   19 1    
    48   21   46 1    
@<TRIPOS>SUBSTRUCTURE
     1 UNK         1 GROUP             0       ****    0 ROOT    
@<TRIPOS>MOLECULE
ZINC01016818_78
49   52    1
SMALL
USER_CHARGES


@<TRIPOS>ATOM
      1 C1         -3.9530  -10.2079   35.8924 C.2       1 UNK        -0.1540 
      2 C2         -8.8290   -9.7790   42.9064 C.2       1 UNK        -0.1540 
      3 C3         -4.6515   -9.2168   36.6406 C.2       1 UNK        -0.1540 
      4 C4         -8.2969   -8.9454   41.8842 C.2       1 UNK        -0.1540 
      5 C5         -8.0256   -5.8511   38.3807 C.ar      1 UNK        -0.1150 
      6 C6         -6.8279   -3.9754   39.3709 C.ar      1 UNK        -0.1150 
      7 C7         -3.5138  -11.1407   36.7963 C.2       1 UNK        -0.0190 
      8 C8         -7.7521  -10.3101   43.5567 C.2       1 UNK        -0.0190 
      9 C9         -7.1698   -5.3429   39.3823 C.ar      1 UNK        -0.1150 
     10 C10        -8.5037   -5.0163   37.3428 C.ar      1 UNK         0.0850 
     11 C11        -7.2970   -3.1196   38.3459 C.ar      1 UNK         0.0850 
     12 C12        -8.1233   -3.6536   37.3321 C.ar      1 UNK         0.0850 
     13 C13        -4.5685   -9.6460   37.9345 C.2       1 UNK         0.1401 
     14 C14        -6.9336   -9.0245   41.9867 C.2       1 UNK         0.0080 
     15 C15        -5.1458   -8.9311   39.0491 C.2       1 UNK         0.2117 
     16 C16        -6.6791   -6.2184   40.5049 C.2       1 UNK         0.6150 
     17 C17        -4.9983   -9.4578   40.4285 C.3       1 UNK        -0.0721 
     18 C18        -5.7842   -8.4183   41.2322 C.3       1 UNK         0.2550 
     19 C19        -9.7436   -6.8148   36.3340 C.3       1 UNK         0.1100 
     20 C20        -6.2004   -1.2048   39.3000 C.3       1 UNK         0.1100 
     21 C21        -7.8792   -2.9567   35.1211 C.3       1 UNK         0.1100 
     22 N22        -5.8020   -7.8353   38.9625 N.2       1 UNK        -0.2833 
     23 N23        -6.1968   -7.4490   40.2077 N.am      1 UNK        -0.1934 
     24 O24        -6.6750   -5.7754   41.6524 O.2       1 UNK        -0.5000 
     25 O25        -3.8846  -10.8109   38.0677 O.3       1 UNK        -0.1900 
     26 O26        -6.5909   -9.8641   43.0048 O.3       1 UNK        -0.1900 
     27 O27        -9.3345   -5.4556   36.3318 O.3       1 UNK        -0.2850 
     28 O28        -6.9870   -1.7773   38.2664 O.3       1 UNK        -0.2850 
     29 O29        -8.5808   -2.8186   36.3449 O.3       1 UNK        -0.2850 
     30 H30        -3.7900  -10.2354   34.8244 H         1 UNK         0.1260 
     31 H31        -9.8677   -9.9636   43.1393 H         1 UNK         0.1260 
     32 H32        -5.1403   -8.3206   36.2846 H         1 UNK         0.1260 
     33 H33        -8.8440   -8.3543   41.1641 H         1 UNK         0.1260 
     34 H34        -8.3019   -6.8927   38.4292 H         1 UNK         0.1150 
     35 H35        -6.1978   -3.6062   40.1661 H         1 UNK         0.1150 
     36 H36        -2.9485  -12.0579   36.7084 H         1 UNK         0.1420 
     37 H37        -7.6379  -10.9867   44.3918 H         1 UNK         0.1420 
     38 H38        -5.4188  -10.4609   40.5105 H         1 UNK         0.0600 
     39 H39        -3.9500   -9.4921   40.7252 H         1 UNK         0.0600 
     40 H40        -5.1150   -7.9235   41.9390 H         1 UNK         0.0600 
     41 H41       -10.3930   -6.9950   35.4775 H         1 UNK         0.0300 
     42 H42       -10.3102   -7.0589   37.2336 H         1 UNK         0.0300 
     43 H43        -8.8901   -7.4888   36.2478 H         1 UNK         0.0300 
     44 H44        -6.0726   -0.1400   39.1061 H         1 UNK         0.0300 
     45 H45        -5.2072   -1.6540   39.3393 H         1 UNK         0.0300 
     46 H46        -6.6833   -1.3067   40.2729 H         1 UNK         0.0300 
     47 H47        -8.2651   -2.2387   34.3978 H         1 UNK         0.0300 
     48 H48        -7.9953   -3.9540   34.6957 H         1 UNK         0.0300 
     49 H49        -6.8152   -2.7570   35.2568 H         1 UNK         0.0300 
@<TRIPOS>BOND
     1    1    3 1    
     2    1    7 2    
     3    1   30 1    
     4    2    4 1    
     5    2    8 2    
     6    2   31 1    
     7    3   13 2    
     8    3   32 1    
     9    4   14 2    
    10    4   33 1    
    11    5    9 ar   
    12    5   10 ar   
    13    5   34 1    
    14    6    9 ar   
    15    6   11 ar   
    16    6   35 1    
    17    7   25 1    
    18    7   36 1    
    19    8   26 1    
    20    8   37 1    
    21    9   16 1    
    22   10   12 ar   
    23   10   27 1    
    24   11   12 ar   
    25   11   28 1    
    26   12   29 1    
    27   13   15 1    
    28   13   25 1    
    29   14   18 1    
    30   14   26 1    
    31   15   17 1    
    32   15   22 2    
    33   16   23 am   BACKBONE|DICT|INTERRES
    34   16   24 2    
    35   17   18 1    
    36   17   38 1    
    37   17   39 1    
    38   18   23 1    
    39   18   40 1    
    40   19   27 1    
    41   19   41 1    
    42   19   42 1    
    43   19   43 1    
    44   20   28 1    
    45   20   44 1    
    46   20   45 1    
    47   20   46 1    
    48   21   29 1    
    49   21   47 1    
    50   21   48 1    
    51   21   49 1    
    52   22   23 1    
@<TRIPOS>SUBSTRUCTURE
     1 UNK         1 GROUP             0       ****    0 ROOT    
@<TRIPOS>MOLECULE
ZINC01087493_1
52   54    1
SMALL
USER_CHARGES


@<TRIPOS>ATOM
      1 C1         -3.9735   -8.2274   36.5843 C.ar      1 UNK        -0.1150 
      2 C2         -3.9317   -6.9037   37.0467 C.ar      1 UNK        -0.1150 
      3 C3         -4.5333   -9.2302   37.3937 C.ar      1 UNK        -0.1150 
      4 C4         -4.4737   -6.5842   38.3035 C.ar      1 UNK        -0.1150 
      5 C5         -7.7159   -5.8591   38.6715 C.ar      1 UNK        -0.1150 
      6 C6         -6.6744   -3.8157   39.4952 C.ar      1 UNK        -0.1150 
      7 C7         -5.0791   -8.9217   38.6626 C.ar      1 UNK         0.0000 
      8 C8         -6.8469   -5.2135   39.5789 C.ar      1 UNK        -0.1150 
      9 C9         -5.0924   -7.5749   39.1156 C.ar      1 UNK        -0.0383 
     10 C10        -8.3742   -5.1283   37.6543 C.ar      1 UNK         0.0850 
     11 C11        -7.3312   -3.0627   38.4930 C.ar      1 UNK         0.0850 
     12 C12        -8.1721   -3.7314   37.5756 C.ar      1 UNK         0.0850 
     13 C13        -5.8392   -9.7026   40.8279 C.2       1 UNK        -0.1150 
     14 C14        -5.5739   -9.9896   39.5461 C.2       1 UNK         0.0000 
     15 C15        -6.1509   -5.9885   40.6702 C.2       1 UNK         0.6150 
     16 C16        -5.7552   -8.3133   41.4494 C.3       1 UNK         0.0700 
     17 C17        -5.7378  -11.3987   39.0013 C.3       1 UNK        -0.1800 
     18 C18        -7.0042   -8.1989   42.3686 C.3       1 UNK        -0.1800 
     19 C19        -4.4762   -8.2498   42.3092 C.3       1 UNK        -0.1800 
     20 C20        -9.3810   -7.1127   36.7410 C.3       1 UNK         0.1100 
     21 C21        -6.3899   -0.9946   39.2805 C.3       1 UNK         0.1100 
     22 C22        -8.1294   -2.9872   35.3713 C.3       1 UNK         0.1100 
     23 N23        -5.6975   -7.2486   40.3931 N.am      1 UNK        -0.0317 
     24 O24        -5.9684   -5.4316   41.7546 O.2       1 UNK        -0.5000 
     25 O25        -9.2128   -5.7032   36.7211 O.3       1 UNK        -0.2850 
     26 O26        -7.1935   -1.6978   38.3452 O.3       1 UNK        -0.2850 
     27 O27        -8.8177   -3.0042   36.6094 O.3       1 UNK        -0.2850 
     28 H28        -3.5560   -8.4786   35.6198 H         1 UNK         0.1150 
     29 H29        -3.4813   -6.1316   36.4394 H         1 UNK         0.1150 
     30 H30        -4.5168  -10.2449   37.0266 H         1 UNK         0.1150 
     31 H31        -4.4046   -5.5553   38.6245 H         1 UNK         0.1150 
     32 H32        -7.8575   -6.9246   38.7669 H         1 UNK         0.1150 
     33 H33        -6.0265   -3.3407   40.2167 H         1 UNK         0.1150 
     34 H34        -6.1738  -10.4972   41.4795 H         1 UNK         0.1150 
     35 H35        -4.7754  -11.8057   38.6905 H         1 UNK         0.0600 
     36 H36        -6.4133  -11.4006   38.1453 H         1 UNK         0.0600 
     37 H37        -6.1511  -12.0718   39.7529 H         1 UNK         0.0600 
     38 H38        -6.9847   -7.3178   43.0100 H         1 UNK         0.0600 
     39 H39        -7.0786   -9.0499   43.0471 H         1 UNK         0.0600 
     40 H40        -7.9273   -8.1691   41.7881 H         1 UNK         0.0600 
     41 H41        -4.3861   -7.2953   42.8292 H         1 UNK         0.0600 
     42 H42        -3.5820   -8.3734   41.6968 H         1 UNK         0.0600 
     43 H43        -4.4644   -9.0332   43.0676 H         1 UNK         0.0600 
     44 H44       -10.0408   -7.4063   35.9246 H         1 UNK         0.0300 
     45 H45        -9.8413   -7.4455   37.6722 H         1 UNK         0.0300 
     46 H46        -8.4312   -7.6308   36.5997 H         1 UNK         0.0300 
     47 H47        -6.4051    0.0679   39.0385 H         1 UNK         0.0300 
     48 H48        -5.3515   -1.3259   39.2429 H         1 UNK         0.0300 
     49 H49        -6.7697   -1.1056   40.2971 H         1 UNK         0.0300 
     50 H50        -8.6886   -2.3887   34.6526 H         1 UNK         0.0300 
     51 H51        -8.0203   -3.9913   34.9594 H         1 UNK         0.0300 
     52 H52        -7.1388   -2.5432   35.4793 H         1 UNK         0.0300 
@<TRIPOS>BOND
     1    1    2 ar   
     2    1    3 ar   
     3    1   28 1    
     4    2    4 ar   
     5    2   29 1    
     6    3    7 ar   
     7    3   30 1    
     8    4    9 ar   
     9    4   31 1    
    10    5    8 ar   
    11    5   10 ar   
    12    5   32 1    
    13    6    8 ar   
    14    6   11 ar   
    15    6   33 1    
    16    7    9 ar   
    17    7   14 1    
    18    8   15 1    
    19    9   23 1    
    20   10   12 ar   
    21   10   25 1    
    22   11   12 ar   
    23   11   26 1    
    24   12   27 1    
    25   13   14 2    
    26   13   16 1    
    27   13   34 1    
    28   14   17 1    
    29   15   23 am   BACKBONE|DICT|INTERRES
    30   15   24 2    
    31   16   18 1    
    32   16   19 1    
    33   16   23 1    
    34   17   35 1    
    35   17   36 1    
    36   17   37 1    
    37   18   38 1    
    38   18   39 1    
    39   18   40 1    
    40   19   41 1    
    41   19   42 1    
    42   19   43 1    
    43   20   25 1    
    44   20   44 1    
    45   20   45 1    
    46   20   46 1    
    47   21   26 1    
    48   21   47 1    
    49   21   48 1    
    50   21   49 1    
    51   22   27 1    
    52   22   50 1    
    53   22   51 1    
    54   22   52 1    
@<TRIPOS>SUBSTRUCTURE
     1 UNK         1 GROUP             0       ****    0 ROOT    
@<TRIPOS>MOLECULE
ZINC01132530_64
42   44    1
SMALL
USER_CHARGES


@<TRIPOS>ATOM
      1 C1         -4.6989  -12.5843   35.9326 C.ar      1 UNK        -0.1150 
      2 C2         -4.5475  -12.9725   37.2760 C.ar      1 UNK        -0.1150 
      3 C3         -5.2715  -11.3364   35.6278 C.ar      1 UNK        -0.1150 
      4 C4         -4.9674  -12.1116   38.3095 C.ar      1 UNK        -0.1150 
      5 C5         -5.6887  -10.4802   36.6661 C.ar      1 UNK        -0.1150 
      6 C6         -8.6131   -6.6028   38.2822 C.ar      1 UNK        -0.1150 
      7 C7         -9.0997   -5.7445   37.2820 C.ar      1 UNK        -0.1150 
      8 C8         -7.5513   -4.7048   39.3616 C.ar      1 UNK        -0.1150 
      9 C9         -5.5437  -10.8507   38.0248 C.ar      1 UNK         0.0000 
     10 C10        -7.8127   -6.0907   39.3229 C.ar      1 UNK        -0.1150 
     11 C11        -8.8168   -4.3644   37.2939 C.ar      1 UNK         0.0850 
     12 C12        -8.0384   -3.8223   38.3617 C.ar      1 UNK         0.0850 
     13 C13        -5.9770   -9.9474   39.1158 C.ar      1 UNK         0.5806 
     14 C14        -6.3352   -9.2082   41.0241 C.ar      1 UNK         0.5449 
     15 C15        -7.2981   -6.9723   40.4315 C.2       1 UNK         0.7375 
     16 C16        -8.9659   -2.3324   35.9677 C.3       1 UNK         0.1100 
     17 C17        -7.0429   -1.9309   39.4945 C.3       1 UNK         0.1100 
     18 C18        -5.5992  -10.6500   43.2628 C.3       1 UNK        -0.0125 
     19 N19        -5.8396  -10.2929   40.4254 N.2       1 UNK        -0.6329 
     20 N20        -6.5147   -8.7617   38.8648 N.2       1 UNK        -0.5282 
     21 N21        -6.7394   -8.2811   40.1173 N.pl3     1 UNK         0.0656 
     22 O22        -7.2780   -6.5420   41.5837 O.2       1 UNK        -0.5000 
     23 O23        -9.3650   -3.6676   36.2338 O.3       1 UNK        -0.2850 
     24 O24        -7.7895   -2.4648   38.4099 O.3       1 UNK        -0.2850 
     25 S25        -6.4372   -9.1073   42.7962 S.3       1 UNK        -0.3200 
     26 H26        -4.3764  -13.2422   35.1381 H         1 UNK         0.1150 
     27 H27        -4.1085  -13.9304   37.5155 H         1 UNK         0.1150 
     28 H28        -5.3903  -11.0334   34.5974 H         1 UNK         0.1150 
     29 H29        -4.8427  -12.4242   39.3363 H         1 UNK         0.1150 
     30 H30        -6.1241   -9.5240   36.4135 H         1 UNK         0.1150 
     31 H31        -8.8584   -7.6545   38.2400 H         1 UNK         0.1150 
     32 H32        -9.7033   -6.1494   36.4829 H         1 UNK         0.1150 
     33 H33        -6.9648   -4.3390   40.1907 H         1 UNK         0.1150 
     34 H34        -9.3670   -2.0281   35.0010 H         1 UNK         0.0300 
     35 H35        -7.8808   -2.2372   35.9132 H         1 UNK         0.0300 
     36 H36        -9.3626   -1.6425   36.7128 H         1 UNK         0.0300 
     37 H37        -6.9556   -0.8516   39.3719 H         1 UNK         0.0300 
     38 H38        -6.0320   -2.3397   39.5237 H         1 UNK         0.0300 
     39 H39        -7.5377   -2.1128   40.4496 H         1 UNK         0.0300 
     40 H40        -5.5531  -10.7359   44.3480 H         1 UNK         0.0600 
     41 H41        -4.5809  -10.6674   42.8735 H         1 UNK         0.0600 
     42 H42        -6.1381  -11.5140   42.8732 H         1 UNK         0.0600 
@<TRIPOS>BOND
     1    1    2 ar   
     2    1    3 ar   
     3    1   26 1    
     4    2    4 ar   
     5    2   27 1    
     6    3    5 ar   
     7    3   28 1    
     8    4    9 ar   
     9    4   29 1    
    10    5    9 ar   
    11    5   30 1    
    12    6    7 ar   
    13    6   10 ar   
    14    6   31 1    
    15    7   11 ar   
    16    7   32 1    
    17    8   10 ar   
    18    8   12 ar   
    19    8   33 1    
    20    9   13 1    
    21   10   15 1    
    22   11   12 ar   
    23   11   23 1    
    24   12   24 1    
    25   13   19 ar   
    26   13   20 ar   
    27   14   19 ar   
    28   14   21 ar   
    29   14   25 1    
    30   15   21 1    
    31   15   22 2    
    32   16   23 1    
    33   16   34 1    
    34   16   35 1    
    35   16   36 1    
    36   17   24 1    
    37   17   37 1    
    38   17   38 1    
    39   17   39 1    
    40   18   25 1    
    41   18   40 1    
    42   18   41 1    
    43   18   42 1    
    44   20   21 ar   
@<TRIPOS>SUBSTRUCTURE
     1 UNK         1 GROUP             0       ****    0 ROOT    
@<TRIPOS>MOLECULE
ZINC01139134_149
42   43    1
SMALL
USER_CHARGES


@<TRIPOS>ATOM
      1 C1         -8.8088  -12.7428   36.4434 C.ar      1 UNK        -0.1150 
      2 C2         -7.7273  -14.5806   37.6218 C.ar      1 UNK        -0.1150 
      3 C3         -8.7496  -13.4791   35.2440 C.ar      1 UNK        -0.1150 
      4 C4         -7.6685  -15.3158   36.4217 C.ar      1 UNK        -0.1150 
      5 C5        -11.2327   -9.4837   38.5182 C.ar      1 UNK        -0.1150 
      6 C6        -10.3491   -7.3542   39.2786 C.ar      1 UNK        -0.1150 
      7 C7        -10.4134   -8.7560   39.4058 C.ar      1 UNK        -0.1150 
      8 C8         -8.2938  -13.2889   37.6431 C.ar      1 UNK         0.2000 
      9 C9        -11.9450   -8.8298   37.4870 C.ar      1 UNK         0.0850 
     10 C10       -11.0667   -6.6672   38.2674 C.ar      1 UNK         0.0850 
     11 C11       -11.8525   -7.4247   37.3483 C.ar      1 UNK         0.0850 
     12 C12        -8.1790  -14.7648   35.2324 C.ar      1 UNK         0.2000 
     13 C13        -9.1282  -10.8047   40.2910 C.2       1 UNK        -0.1150 
     14 C14        -8.7957  -11.3131   39.0882 C.2       1 UNK        -0.0970 
     15 C15        -9.6268   -9.4238   40.4872 C.2       1 UNK         0.5850 
     16 C16       -12.8566  -10.9100   36.6757 C.3       1 UNK         0.1100 
     17 C17       -10.3224   -4.5337   39.1295 C.3       1 UNK         0.1100 
     18 C18       -12.1919   -5.6626   35.7208 C.3       1 UNK         0.1100 
     19 N19        -8.3357  -12.6035   38.8647 N.pl3     1 UNK        -0.5717 
     20 O20        -9.3668   -8.8288   41.5318 O.2       1 UNK        -0.4700 
     21 O21       -12.7388   -9.4987   36.5759 O.3       1 UNK        -0.2850 
     22 O22       -11.0390   -5.2898   38.1635 O.3       1 UNK        -0.2850 
     23 O23       -12.5897   -6.8916   36.3072 O.3       1 UNK        -0.2850 
     24 Br24       -8.1012  -15.7580   33.6128 Br        1 UNK        -0.2000 
     25 H25        -9.2607  -11.7637   36.4167 H         1 UNK         0.1150 
     26 H26        -7.3296  -15.0193   38.5249 H         1 UNK         0.1150 
     27 H27        -9.1429  -13.0587   34.3303 H         1 UNK         0.1150 
     28 H28        -7.2320  -16.3034   36.4105 H         1 UNK         0.1150 
     29 H29       -11.3102  -10.5521   38.6438 H         1 UNK         0.1150 
     30 H30        -9.7335   -6.8191   39.9860 H         1 UNK         0.1150 
     31 H31        -9.0247  -11.4028   41.1837 H         1 UNK         0.1150 
     32 H32        -8.8616  -10.7052   38.1976 H         1 UNK         0.1150 
     33 H33       -13.5098  -11.2717   35.8817 H         1 UNK         0.0300 
     34 H34       -13.3001  -11.2069   37.6271 H         1 UNK         0.0300 
     35 H35       -11.8904  -11.4018   36.5555 H         1 UNK         0.0300 
     36 H36       -10.4430   -3.4722   38.9136 H         1 UNK         0.0300 
     37 H37        -9.2548   -4.7552   39.0986 H         1 UNK         0.0300 
     38 H38       -10.7025   -4.7080   40.1371 H         1 UNK         0.0300 
     39 H39       -12.6258   -5.5891   34.7239 H         1 UNK         0.0300 
     40 H40       -11.1089   -5.5904   35.6116 H         1 UNK         0.0300 
     41 H41       -12.5613   -4.8135   36.2958 H         1 UNK         0.0300 
     42 H42        -8.0568  -13.1438   39.6726 H         1 UNK         0.3537 
@<TRIPOS>BOND
     1    1    3 ar   
     2    1    8 ar   
     3    1   25 1    
     4    2    4 ar   
     5    2    8 ar   
     6    2   26 1    
     7    3   12 ar   
     8    3   27 1    
     9    4   12 ar   
    10    4   28 1    
    11    5    7 ar   
    12    5    9 ar   
    13    5   29 1    
    14    6    7 ar   
    15    6   10 ar   
    16    6   30 1    
    17    7   15 1    
    18    8   19 1    
    19    9   11 ar   
    20    9   21 1    
    21   10   11 ar   
    22   10   22 1    
    23   11   23 1    
    24   12   24 1    
    25   13   14 2    
    26   13   15 1    
    27   13   31 1    
    28   14   19 1    
    29   14   32 1    
    30   15   20 2    
    31   16   21 1    
    32   16   33 1    
    33   16   34 1    
    34   16   35 1    
    35   17   22 1    
    36   17   36 1    
    37   17   37 1    
    38   17   38 1    
    39   18   23 1    
    40   18   39 1    
    41   18   40 1    
    42   18   41 1    
    43   19   42 1    
@<TRIPOS>SUBSTRUCTURE
     1 UNK         1 GROUP             0       ****    0 ROOT    
@<TRIPOS>MOLECULE
ZINC01140491_61
49   51    1
SMALL
USER_CHARGES


@<TRIPOS>ATOM
      1 C1        -11.9615  -19.8807   35.2208 C.ar      1 UNK        -0.1150 
      2 C2        -12.4927  -19.4088   42.4018 C.ar      1 UNK        -0.1150 
      3 C3        -11.6310  -18.9028   36.1791 C.ar      1 UNK        -0.1150 
      4 C4        -13.0868  -20.7049   35.4166 C.ar      1 UNK        -0.1150 
      5 C5        -12.4842  -20.5855   41.6294 C.ar      1 UNK        -0.1150 
      6 C6        -13.1206  -18.2458   41.9147 C.ar      1 UNK        -0.1150 
      7 C7        -12.4242  -18.7505   37.3331 C.ar      1 UNK        -0.1150 
      8 C8        -13.8790  -20.5532   36.5715 C.ar      1 UNK        -0.1150 
      9 C9        -13.1063  -20.5999   40.3672 C.ar      1 UNK        -0.1150 
     10 C10       -16.4859  -15.4395   39.0120 C.ar      1 UNK        -0.1150 
     11 C11       -14.9076  -13.6289   39.3725 C.ar      1 UNK        -0.1150 
     12 C12       -15.2863  -14.9681   39.5867 C.ar      1 UNK        -0.1150 
     13 C13       -13.7417  -18.2527   40.6420 C.ar      1 UNK         0.0850 
     14 C14       -13.5486  -19.5817   37.5369 C.ar      1 UNK         0.0850 
     15 C15       -13.7317  -19.4369   39.8729 C.ar      1 UNK         0.0850 
     16 C16       -17.2834  -14.6096   38.2018 C.ar      1 UNK         0.0850 
     17 C17       -15.6866  -12.7732   38.5727 C.ar      1 UNK         0.0850 
     18 C18       -16.8603  -13.2743   37.9436 C.ar      1 UNK         0.0850 
     19 C19       -14.4413  -15.8533   40.4548 C.2       1 UNK         0.6150 
     20 C20       -19.5374  -14.3832   37.3811 C.3       1 UNK         0.1100 
     21 C21       -16.1960  -10.4448   38.5012 C.3       1 UNK         0.1100 
     22 C22       -16.9386  -12.4445   35.7728 C.3       1 UNK         0.1100 
     23 N23       -14.4081  -17.1377   40.0690 N.am      1 UNK        -0.3850 
     24 O24       -13.7894  -15.3777   41.3820 O.2       1 UNK        -0.5000 
     25 O25       -14.3456  -19.4494   38.6454 O.3       1 UNK        -0.1700 
     26 O26       -18.4189  -15.2026   37.6898 O.3       1 UNK        -0.2850 
     27 O27       -15.2274  -11.4833   38.4285 O.3       1 UNK        -0.2850 
     28 O28       -17.5477  -12.4886   37.0544 O.3       1 UNK        -0.2850 
     29 H29       -11.3530  -19.9969   34.3352 H         1 UNK         0.1150 
     30 H30       -12.0192  -19.3958   43.3729 H         1 UNK         0.1150 
     31 H31       -10.7693  -18.2686   36.0295 H         1 UNK         0.1150 
     32 H32       -13.3437  -21.4527   34.6806 H         1 UNK         0.1150 
     33 H33       -12.0030  -21.4769   42.0055 H         1 UNK         0.1150 
     34 H34       -13.1157  -17.3650   42.5388 H         1 UNK         0.1150 
     35 H35       -12.1646  -17.9964   38.0621 H         1 UNK         0.1150 
     36 H36       -14.7437  -21.1837   36.7196 H         1 UNK         0.1150 
     37 H37       -13.1030  -21.5023   39.7735 H         1 UNK         0.1150 
     38 H38       -16.8215  -16.4500   39.1949 H         1 UNK         0.1150 
     39 H39       -14.0075  -13.2465   39.8337 H         1 UNK         0.1150 
     40 H40       -19.4457  -13.9476   36.3862 H         1 UNK         0.0300 
     41 H41       -19.6815  -13.5887   38.1151 H         1 UNK         0.0300 
     42 H42       -20.4388  -14.9956   37.3826 H         1 UNK         0.0300 
     43 H43       -16.5851  -10.1947   37.5147 H         1 UNK         0.0300 
     44 H44       -15.7259   -9.5463   38.9005 H         1 UNK         0.0300 
     45 H45       -17.0291  -10.6987   39.1588 H         1 UNK         0.0300 
     46 H46       -17.5411  -11.8312   35.1030 H         1 UNK         0.0300 
     47 H47       -16.8655  -13.4429   35.3391 H         1 UNK         0.0300 
     48 H48       -15.9386  -12.0107   35.8158 H         1 UNK         0.0300 
     49 H49       -14.9130  -17.3429   39.2208 H         1 UNK         0.3000 
@<TRIPOS>BOND
     1    1    3 ar   
     2    1    4 ar   
     3    1   29 1    
     4    2    5 ar   
     5    2    6 ar   
     6    2   30 1    
     7    3    7 ar   
     8    3   31 1    
     9    4    8 ar   
    10    4   32 1    
    11    5    9 ar   
    12    5   33 1    
    13    6   13 ar   
    14    6   34 1    
    15    7   14 ar   
    16    7   35 1    
    17    8   14 ar   
    18    8   36 1    
    19    9   15 ar   
    20    9   37 1    
    21   10   12 ar   
    22   10   16 ar   
    23   10   38 1    
    24   11   12 ar   
    25   11   17 ar   
    26   11   39 1    
    27   12   19 1    
    28   13   15 ar   
    29   13   23 1    
    30   14   25 1    
    31   15   25 1    
    32   16   18 ar   
    33   16   26 1    
    34   17   18 ar   
    35   17   27 1    
    36   18   28 1    
    37   19   23 am   BACKBONE|DICT|INTERRES
    38   19   24 2    
    39   20   26 1    
    40   20   40 1    
    41   20   41 1    
    42   20   42 1    
    43   21   27 1    
    44   21   43 1    
    45   21   44 1    
    46   21   45 1    
    47   22   28 1    
    48   22   46 1    
    49   22   47 1    
    50   22   48 1    
    51   23   49 1    
@<TRIPOS>SUBSTRUCTURE
     1 UNK         1 GROUP             0       ****    0 ROOT    
@<TRIPOS>MOLECULE
ZINC01151384_220
38   39    1
SMALL
USER_CHARGES


@<TRIPOS>ATOM
      1 C1         -7.5295  -12.8443   35.2634 C.ar      1 UNK        -0.1150 
      2 C2         -9.8288   -7.0701   39.3933 C.ar      1 UNK        -0.1150 
      3 C3         -7.9074  -12.2425   36.4785 C.ar      1 UNK        -0.1150 
      4 C4        -10.2577   -6.2891   38.3045 C.ar      1 UNK        -0.1150 
      5 C5         -6.9384  -14.1209   35.2630 C.ar      1 UNK        -0.1150 
      6 C6        -10.7482   -9.0530   38.3288 C.ar      1 UNK        -0.1150 
      7 C7        -10.0563   -8.4612   39.4098 C.ar      1 UNK        -0.1150 
      8 C8         -7.6943  -12.9122   37.7066 C.ar      1 UNK         0.2000 
      9 C9        -10.9307   -6.8859   37.2100 C.ar      1 UNK         0.0850 
     10 C10       -11.1825   -8.2772   37.2256 C.ar      1 UNK         0.0850 
     11 C11        -6.7281  -14.8020   36.4767 C.ar      1 UNK         0.1800 
     12 C12        -7.1079  -14.2013   37.6991 C.ar      1 UNK         0.1800 
     13 C13        -9.0710  -10.6448   40.3455 C.2       1 UNK        -0.1150 
     14 C14        -8.5340  -11.0648   39.1831 C.2       1 UNK        -0.0970 
     15 C15        -9.5646   -9.2658   40.5683 C.2       1 UNK         0.5850 
     16 C16       -11.1286   -4.7840   36.0571 C.3       1 UNK         0.1100 
     17 C17       -12.1647  -10.1896   36.1421 C.3       1 UNK         0.1100 
     18 N18        -8.0581  -12.3460   38.9397 N.pl3     1 UNK        -0.5717 
     19 O19        -9.5341   -8.7828   41.6988 O.2       1 UNK        -0.4700 
     20 O20       -11.3688   -6.1820   36.1072 O.3       1 UNK        -0.2850 
     21 O21       -11.8478   -8.8061   36.1386 O.3       1 UNK        -0.2850 
     22 Cl22       -6.0047  -16.3710   36.4400 Cl        1 UNK        -0.1800 
     23 Cl23       -6.8572  -15.0354   39.1972 Cl        1 UNK        -0.1800 
     24 H24        -7.6951  -12.3247   34.3302 H         1 UNK         0.1150 
     25 H25        -9.3140   -6.5972   40.2187 H         1 UNK         0.1150 
     26 H26        -8.3665  -11.2666   36.4418 H         1 UNK         0.1150 
     27 H27       -10.0547   -5.2300   38.3340 H         1 UNK         0.1150 
     28 H28        -6.6468  -14.5833   34.3309 H         1 UNK         0.1150 
     29 H29       -10.9431  -10.1134   38.3637 H         1 UNK         0.1150 
     30 H30        -9.1447  -11.3173   41.1868 H         1 UNK         0.1150 
     31 H31        -8.4283  -10.3851   38.3507 H         1 UNK         0.1150 
     32 H32       -11.5304   -4.3844   35.1262 H         1 UNK         0.0300 
     33 H33       -10.0609   -4.5617   36.0769 H         1 UNK         0.0300 
     34 H34       -11.6232   -4.2647   36.8790 H         1 UNK         0.0300 
     35 H35       -12.7075  -10.4349   35.2293 H         1 UNK         0.0300 
     36 H36       -12.8059  -10.4501   36.9853 H         1 UNK         0.0300 
     37 H37       -11.2644  -10.8053   36.1659 H         1 UNK         0.0300 
     38 H38        -7.9414  -12.9734   39.7281 H         1 UNK         0.3537 
@<TRIPOS>BOND
     1    1    3 ar   
     2    1    5 ar   
     3    1   24 1    
     4    2    4 ar   
     5    2    7 ar   
     6    2   25 1    
     7    3    8 ar   
     8    3   26 1    
     9    4    9 ar   
    10    4   27 1    
    11    5   11 ar   
    12    5   28 1    
    13    6    7 ar   
    14    6   10 ar   
    15    6   29 1    
    16    7   15 1    
    17    8   12 ar   
    18    8   18 1    
    19    9   10 ar   
    20    9   20 1    
    21   10   21 1    
    22   11   12 ar   
    23   11   22 1    
    24   12   23 1    
    25   13   14 2    
    26   13   15 1    
    27   13   30 1    
    28   14   18 1    
    29   14   31 1    
    30   15   19 2    
    31   16   20 1    
    32   16   32 1    
    33   16   33 1    
    34   16   34 1    
    35   17   21 1    
    36   17   35 1    
    37   17   36 1    
    38   17   37 1    
    39   18   38 1    
@<TRIPOS>SUBSTRUCTURE
     1 UNK         1 GROUP             0       ****    0 ROOT    
@<TRIPOS>MOLECULE
ZINC01198767_41
38   39    1
SMALL
USER_CHARGES


@<TRIPOS>ATOM
      1 C1         -6.2153  -10.3646   40.9624 C.ar      1 UNK        -0.1150 
      2 C2         -5.6937  -10.6852   39.6964 C.ar      1 UNK        -0.1150 
      3 C3         -7.2546   -4.4167   39.4682 C.ar      1 UNK        -0.1150 
      4 C4         -8.3329   -6.4760   38.7350 C.ar      1 UNK        -0.1150 
      5 C5         -5.7786   -8.3351   39.0726 C.ar      1 UNK        -0.1150 
      6 C6         -7.4113   -5.8150   39.5782 C.ar      1 UNK        -0.1150 
      7 C7         -6.3157   -7.9954   40.3368 C.ar      1 UNK        -0.1150 
      8 C8         -6.5226   -9.0287   41.2949 C.ar      1 UNK         0.1800 
      9 C9         -7.9884   -3.6763   38.5106 C.ar      1 UNK         0.0850 
     10 C10        -9.0717   -5.7567   37.7662 C.ar      1 UNK         0.0850 
     11 C11        -8.8852   -4.3611   37.6577 C.ar      1 UNK         0.0850 
     12 C12        -5.4736   -9.6688   38.7526 C.ar      1 UNK         0.2000 
     13 C13        -6.6216   -6.5563   40.6048 C.2       1 UNK         0.7000 
     14 C14        -7.0463   -1.5890   39.2511 C.3       1 UNK         0.1100 
     15 C15       -10.1863   -7.7420   36.9848 C.3       1 UNK         0.1100 
     16 C16        -8.8696   -3.3357   35.5637 C.3       1 UNK         0.1100 
     17 N17        -7.0381   -8.7895   42.5698 N.pl3     1 UNK        -0.9000 
     18 O18        -6.2282   -5.9971   41.6305 O.2       1 UNK        -0.4700 
     19 O19        -7.8829   -2.3089   38.3581 O.3       1 UNK        -0.2850 
     20 O20        -9.9725   -6.3413   36.8998 O.3       1 UNK        -0.2850 
     21 O21        -9.6132   -3.6697   36.7235 O.3       1 UNK        -0.2850 
     22 Br22       -4.7703  -10.0951   37.0387 Br        1 UNK        -0.2000 
     23 H23        -6.3783  -11.1589   41.6763 H         1 UNK         0.1150 
     24 H24        -5.4601  -11.7101   39.4491 H         1 UNK         0.1150 
     25 H25        -6.5595   -3.9276   40.1346 H         1 UNK         0.1150 
     26 H26        -8.4696   -7.5406   38.8471 H         1 UNK         0.1150 
     27 H27        -5.5976   -7.5689   38.3320 H         1 UNK         0.1150 
     28 H28        -7.1039   -0.5261   39.0174 H         1 UNK         0.0300 
     29 H29        -6.0030   -1.8914   39.1522 H         1 UNK         0.0300 
     30 H30        -7.3647   -1.7158   40.2869 H         1 UNK         0.0300 
     31 H31       -10.9217   -8.0381   36.2369 H         1 UNK         0.0300 
     32 H32       -10.5782   -8.0272   37.9620 H         1 UNK         0.0300 
     33 H33        -9.2701   -8.2990   36.7839 H         1 UNK         0.0300 
     34 H34        -9.5247   -2.8544   34.8378 H         1 UNK         0.0300 
     35 H35        -8.4513   -4.2285   35.0965 H         1 UNK         0.0300 
     36 H36        -8.0556   -2.6459   35.7881 H         1 UNK         0.0300 
     37 H37        -6.9774   -9.5139   43.2718 H         1 UNK         0.3600 
     38 H38        -6.9753   -7.8491   42.9456 H         1 UNK         0.3600 
@<TRIPOS>BOND
     1    1    2 ar   
     2    1    8 ar   
     3    1   23 1    
     4    2   12 ar   
     5    2   24 1    
     6    3    6 ar   
     7    3    9 ar   
     8    3   25 1    
     9    4    6 ar   
    10    4   10 ar   
    11    4   26 1    
    12    5    7 ar   
    13    5   12 ar   
    14    5   27 1    
    15    6   13 1    
    16    7    8 ar   
    17    7   13 1    
    18    8   17 1    
    19    9   11 ar   
    20    9   19 1    
    21   10   11 ar   
    22   10   20 1    
    23   11   21 1    
    24   12   22 1    
    25   13   18 2    
    26   14   19 1    
    27   14   28 1    
    28   14   29 1    
    29   14   30 1    
    30   15   20 1    
    31   15   31 1    
    32   15   32 1    
    33   15   33 1    
    34   16   21 1    
    35   16   34 1    
    36   16   35 1    
    37   16   36 1    
    38   17   37 1    
    39   17   38 1    
@<TRIPOS>SUBSTRUCTURE
     1 UNK         1 GROUP             0       ****    0 ROOT    
@<TRIPOS>MOLECULE
ZINC01307088_23
40   42    1
SMALL
USER_CHARGES


@<TRIPOS>ATOM
      1 C1         -9.9655  -17.3530   37.7163 C.ar      1 UNK        -0.1150 
      2 C2         -8.1341  -15.8180   37.2587 C.ar      1 UNK        -0.1150 
      3 C3         -9.1998  -18.4187   37.2039 C.ar      1 UNK        -0.1150 
      4 C4         -7.3676  -16.8841   36.7486 C.ar      1 UNK        -0.1150 
      5 C5        -11.4379  -14.8811   38.9296 C.2       1 UNK        -0.1540 
      6 C6        -11.7062  -13.5041   39.1664 C.2       1 UNK        -0.1540 
      7 C7         -9.4423  -16.0396   37.7492 C.ar      1 UNK        -0.4134 
      8 C8         -7.9004  -18.1850   36.7202 C.ar      1 UNK         0.2000 
      9 C9        -10.2404  -14.9345   38.2729 C.2       1 UNK         0.5364 
     10 C10       -10.6610  -12.8003   38.6245 C.2       1 UNK         0.0080 
     11 C11       -10.3821  -11.3836   38.5760 C.2       1 UNK         0.7137 
     12 C12       -14.7983   -8.2588   37.9350 C.2       1 UNK         0.5000 
     13 C13       -12.6073  -10.9739   37.4829 C.3       1 UNK        -0.0500 
     14 C14       -11.4179   -9.0902   38.4706 C.3       1 UNK        -0.0500 
     15 C15       -13.8847  -10.5784   38.2466 C.3       1 UNK        -0.0500 
     16 C16       -12.7099   -8.6704   39.2025 C.3       1 UNK        -0.0500 
     17 C17       -15.9695   -8.7981   37.1162 C.3       1 UNK        -0.1800 
     18 N18       -11.4246  -10.5500   38.2532 N.pl3     1 UNK        -0.2625 
     19 N19       -13.8824   -9.1211   38.4380 N.am      1 UNK        -0.1400 
     20 O20       -14.7283   -7.0445   38.1087 O.2       1 UNK        -0.5000 
     21 O21        -9.7577  -13.6754   38.0903 O.3       1 UNK        -0.1900 
     22 S22        -8.8439  -10.8826   38.9955 S.2       1 UNK        -0.4762 
     23 Br23       -6.8681  -19.6249   36.0267 Br        1 UNK        -0.2000 
     24 H24       -10.9621  -17.5578   38.0795 H         1 UNK         0.1150 
     25 H25        -7.7028  -14.8264   37.2715 H         1 UNK         0.1150 
     26 H26        -9.6068  -19.4186   37.1789 H         1 UNK         0.1150 
     27 H27        -6.3692  -16.7061   36.3773 H         1 UNK         0.1150 
     28 H28       -12.0392  -15.7326   39.2097 H         1 UNK         0.1260 
     29 H29       -12.5576  -13.0768   39.6755 H         1 UNK         0.1260 
     30 H30       -12.6212  -12.0366   37.2457 H         1 UNK         0.0600 
     31 H31       -12.5866  -10.4679   36.5160 H         1 UNK         0.0600 
     32 H32       -11.3462   -8.5835   37.5070 H         1 UNK         0.0600 
     33 H33       -10.5696   -8.7430   39.0600 H         1 UNK         0.0600 
     34 H34       -14.7555  -10.9449   37.7050 H         1 UNK         0.0600 
     35 H35       -13.9176  -11.0651   39.2222 H         1 UNK         0.0600 
     36 H36       -12.7423   -9.1091   40.2006 H         1 UNK         0.0600 
     37 H37       -12.7003   -7.5894   39.3551 H         1 UNK         0.0600 
     38 H38       -16.5840   -9.4691   37.7161 H         1 UNK         0.0600 
     39 H39       -15.6125   -9.3260   36.2321 H         1 UNK         0.0600 
     40 H40       -16.6029   -7.9765   36.7803 H         1 UNK         0.0600 
@<TRIPOS>BOND
     1    1    3 ar   
     2    1    7 ar   
     3    1   24 1    
     4    2    4 ar   
     5    2    7 ar   
     6    2   25 1    
     7    3    8 ar   
     8    3   26 1    
     9    4    8 ar   
    10    4   27 1    
    11    5    6 1    
    12    5    9 2    
    13    5   28 1    
    14    6   10 2    
    15    6   29 1    
    16    7    9 1    
    17    8   23 1    
    18    9   21 1    
    19   10   11 1    
    20   10   21 1    
    21   11   18 1    
    22   11   22 2    
    23   12   17 1    
    24   12   19 am   BACKBONE|DICT|INTERRES
    25   12   20 2    
    26   13   15 1    
    27   13   18 1    
    28   13   30 1    
    29   13   31 1    
    30   14   16 1    
    31   14   18 1    
    32   14   32 1    
    33   14   33 1    
    34   15   19 1    
    35   15   34 1    
    36   15   35 1    
    37   16   19 1    
    38   16   36 1    
    39   16   37 1    
    40   17   38 1    
    41   17   39 1    
    42   17   40 1    
@<TRIPOS>SUBSTRUCTURE
     1 UNK         1 GROUP             0       ****    0 ROOT    
@<TRIPOS>MOLECULE
ZINC01359850_18
56   59    1
SMALL
USER_CHARGES


@<TRIPOS>ATOM
      1 C1         -4.4268  -12.5635   35.3696 C.ar      1 UNK        -0.1150 
      2 C2         -3.5873  -11.1175   33.6122 C.ar      1 UNK        -0.1150 
      3 C3         -4.4531  -13.6476   34.4691 C.ar      1 UNK        -0.1150 
      4 C4         -3.6121  -12.1983   32.7074 C.ar      1 UNK        -0.1150 
      5 C5         -8.3266   -5.9943   38.7319 C.ar      1 UNK        -0.1150 
      6 C6         -6.6954   -4.2928   39.3541 C.ar      1 UNK        -0.1150 
      7 C7         -3.9943  -11.2793   34.9591 C.ar      1 UNK         0.0000 
      8 C8         -7.2610   -5.5679   39.5533 C.ar      1 UNK        -0.1150 
      9 C9         -8.7912   -5.1779   37.6737 C.ar      1 UNK         0.0850 
     10 C10        -7.1492   -3.4557   38.3067 C.ar      1 UNK         0.0850 
     11 C11        -8.1873   -3.9181   37.4630 C.ar      1 UNK         0.0850 
     12 C12        -4.0458  -13.4649   33.1362 C.ar      1 UNK         0.2200 
     13 C13        -3.9704  -10.1436   35.9113 C.2       1 UNK         0.6647 
     14 C14        -4.1705   -9.0553   37.6618 C.2       1 UNK         0.5486 
     15 C15        -6.7724   -6.4238   40.6864 C.2       1 UNK         0.6150 
     16 C16        -4.5690   -8.9244   41.5261 C.3       1 UNK        -0.1200 
     17 C17        -4.0833   -9.4377   40.1583 C.3       1 UNK        -0.1200 
     18 C18        -6.0837   -8.6516   41.5014 C.3       1 UNK        -0.0500 
     19 C19        -6.0672   -8.2475   39.0956 C.3       1 UNK        -0.0500 
     20 C20        -4.5512   -8.5218   39.0072 C.3       1 UNK         0.0550 
     21 C21       -10.4440   -6.7958   37.0077 C.3       1 UNK         0.1100 
     22 C22        -5.6422   -1.6878   38.9336 C.3       1 UNK         0.1100 
     23 C23        -7.7889   -3.0935   35.3153 C.3       1 UNK         0.1100 
     24 N24        -4.3882  -10.2851   37.1995 N.2       1 UNK        -0.7040 
     25 N25        -3.5619   -8.9346   35.5480 N.2       1 UNK        -0.4268 
     26 N26        -6.3975   -7.7020   40.4240 N.am      1 UNK        -0.1400 
     27 O27        -6.7303   -5.9366   41.8146 O.2       1 UNK        -0.5000 
     28 O28        -3.7234   -8.1853   36.7223 O.3       1 UNK        -0.1975 
     29 O29        -9.8065   -5.5427   36.8137 O.3       1 UNK        -0.2850 
     30 O30        -6.6383   -2.1978   38.0603 O.3       1 UNK        -0.2850 
     31 O31        -8.6513   -3.1306   36.4403 O.3       1 UNK        -0.2850 
     32 F32        -4.0713  -14.5038   32.2697 F         1 UNK        -0.2200 
     33 H33        -4.7436  -12.7204   36.3906 H         1 UNK         0.1150 
     34 H34        -3.2515  -10.1508   33.2652 H         1 UNK         0.1150 
     35 H35        -4.7855  -14.6211   34.7981 H         1 UNK         0.1150 
     36 H36        -3.2992  -12.0584   31.6832 H         1 UNK         0.1150 
     37 H37        -8.7715   -6.9573   38.9295 H         1 UNK         0.1150 
     38 H38        -5.9103   -3.9780   40.0253 H         1 UNK         0.1150 
     39 H39        -4.3310   -9.6507   42.3044 H         1 UNK         0.0600 
     40 H40        -4.0380   -8.0077   41.7887 H         1 UNK         0.0600 
     41 H41        -2.9964   -9.5286   40.1508 H         1 UNK         0.0600 
     42 H42        -4.4745  -10.4440   39.9991 H         1 UNK         0.0600 
     43 H43        -6.6317   -9.5794   41.3315 H         1 UNK         0.0600 
     44 H44        -6.4121   -8.2931   42.4792 H         1 UNK         0.0600 
     45 H45        -6.3374   -7.5883   38.2725 H         1 UNK         0.0600 
     46 H46        -6.6270   -9.1703   38.9354 H         1 UNK         0.0600 
     47 H47        -4.0349   -7.5668   39.1193 H         1 UNK         0.0600 
     48 H48       -11.2218   -6.9221   36.2546 H         1 UNK         0.0300 
     49 H49       -10.9216   -6.8537   37.9867 H         1 UNK         0.0300 
     50 H50        -9.7410   -7.6224   36.8967 H         1 UNK         0.0300 
     51 H51        -5.3688   -0.6814   38.6170 H         1 UNK         0.0300 
     52 H52        -4.7388   -2.2983   38.9067 H         1 UNK         0.0300 
     53 H53        -6.0068   -1.6226   39.9598 H         1 UNK         0.0300 
     54 H54        -8.2434   -2.4897   34.5302 H         1 UNK         0.0300 
     55 H55        -7.6271   -4.0956   34.9155 H         1 UNK         0.0300 
     56 H56        -6.8202   -2.6537   35.5540 H         1 UNK         0.0300 
@<TRIPOS>BOND
     1    1    3 ar   
     2    1    7 ar   
     3    1   33 1    
     4    2    4 ar   
     5    2    7 ar   
     6    2   34 1    
     7    3   12 ar   
     8    3   35 1    
     9    4   12 ar   
    10    4   36 1    
    11    5    8 ar   
    12    5    9 ar   
    13    5   37 1    
    14    6    8 ar   
    15    6   10 ar   
    16    6   38 1    
    17    7   13 1    
    18    8   15 1    
    19    9   11 ar   
    20    9   29 1    
    21   10   11 ar   
    22   10   30 1    
    23   11   31 1    
    24   12   32 1    
    25   13   24 1    
    26   13   25 2    
    27   14   20 1    
    28   14   24 2    
    29   14   28 1    
    30   15   26 am   BACKBONE|DICT|INTERRES
    31   15   27 2    
    32   16   17 1    
    33   16   18 1    
    34   16   39 1    
    35   16   40 1    
    36   17   20 1    
    37   17   41 1    
    38   17   42 1    
    39   18   26 1    
    40   18   43 1    
    41   18   44 1    
    42   19   20 1    
    43   19   26 1    
    44   19   45 1    
    45   19   46 1    
    46   20   47 1    
    47   21   29 1    
    48   21   48 1    
    49   21   49 1    
    50   21   50 1    
    51   22   30 1    
    52   22   51 1    
    53   22   52 1    
    54   22   53 1    
    55   23   31 1    
    56   23   54 1    
    57   23   55 1    
    58   23   56 1    
    59   25   28 1    
@<TRIPOS>SUBSTRUCTURE
     1 UNK         1 GROUP             0       ****    0 ROOT    
@<TRIPOS>MOLECULE
ZINC01363478_18
59   62    1
SMALL
USER_CHARGES


@<TRIPOS>ATOM
      1 C1         -4.3565  -12.5363   35.4073 C.ar      1 UNK        -0.1150 
      2 C2         -3.4582  -11.0981   33.6749 C.ar      1 UNK        -0.1150 
      3 C3         -4.3585  -13.6227   34.5105 C.ar      1 UNK        -0.1150 
      4 C4         -3.4573  -12.1795   32.7718 C.ar      1 UNK        -0.1150 
      5 C5         -8.3292   -5.9818   38.7321 C.ar      1 UNK        -0.1150 
      6 C6         -6.7005   -4.2812   39.3662 C.ar      1 UNK        -0.1150 
      7 C7         -3.9068  -11.2553   35.0081 C.ar      1 UNK         0.0000 
      8 C8         -7.2699   -5.5553   39.5620 C.ar      1 UNK        -0.1150 
      9 C9         -3.9071  -13.4474   33.1885 C.ar      1 UNK        -0.1150 
     10 C10        -8.7887   -5.1634   37.6732 C.ar      1 UNK         0.0850 
     11 C11        -7.1476   -3.4441   38.3162 C.ar      1 UNK         0.0850 
     12 C12        -8.1856   -3.9016   37.4721 C.ar      1 UNK         0.0850 
     13 C13        -3.9071  -10.1181   35.9579 C.2       1 UNK         0.6647 
     14 C14        -4.1449   -9.0278   37.7031 C.2       1 UNK         0.5486 
     15 C15        -6.7907   -6.4116   40.6986 C.2       1 UNK         0.6150 
     16 C16        -4.5934   -8.9027   41.5618 C.3       1 UNK        -0.1200 
     17 C17        -4.0867   -9.4097   40.1992 C.3       1 UNK        -0.1200 
     18 C18        -6.1095   -8.6397   41.5178 C.3       1 UNK        -0.0500 
     19 C19        -6.0652   -8.2314   39.1131 C.3       1 UNK        -0.0500 
     20 C20        -4.5466   -8.4960   39.0429 C.3       1 UNK         0.0550 
     21 C21        -3.9124  -14.6155   32.2240 C.3       1 UNK        -0.0650 
     22 C22       -10.4300   -6.7836   36.9896 C.3       1 UNK         0.1100 
     23 C23        -5.6107   -1.6943   38.9174 C.3       1 UNK         0.1100 
     24 C24        -7.8718   -3.2270   35.2686 C.3       1 UNK         0.1100 
     25 N25        -4.3562  -10.2567   37.2367 N.2       1 UNK        -0.7040 
     26 N26        -3.4867   -8.9092   35.6046 N.2       1 UNK        -0.4268 
     27 N27        -6.4142   -7.6897   40.4385 N.am      1 UNK        -0.1400 
     28 O28        -6.7579   -5.9252   41.8276 O.2       1 UNK        -0.5000 
     29 O29        -3.6725   -8.1592   36.7748 O.3       1 UNK        -0.1975 
     30 O30        -9.7984   -5.5263   36.8060 O.3       1 UNK        -0.2850 
     31 O31        -6.6259   -2.1928   38.0595 O.3       1 UNK        -0.2850 
     32 O32        -8.6367   -3.1018   36.4546 O.3       1 UNK        -0.2850 
     33 H33        -4.7059  -12.6885   36.4181 H         1 UNK         0.1150 
     34 H34        -3.1090  -10.1328   33.3373 H         1 UNK         0.1150 
     35 H35        -4.7088  -14.5893   34.8436 H         1 UNK         0.1150 
     36 H36        -3.1099  -12.0275   31.7600 H         1 UNK         0.1150 
     37 H37        -8.7743   -6.9459   38.9247 H         1 UNK         0.1150 
     38 H38        -5.9176   -3.9675   40.0405 H         1 UNK         0.1150 
     39 H39        -4.3603   -9.6294   42.3413 H         1 UNK         0.0600 
     40 H40        -4.0714   -7.9834   41.8328 H         1 UNK         0.0600 
     41 H41        -2.9992   -9.4926   40.2051 H         1 UNK         0.0600 
     42 H42        -4.4687  -10.4185   40.0334 H         1 UNK         0.0600 
     43 H43        -6.6497   -9.5705   41.3390 H         1 UNK         0.0600 
     44 H44        -6.4530   -8.2849   42.4918 H         1 UNK         0.0600 
     45 H45        -6.3304   -7.5732   38.2875 H         1 UNK         0.0600 
     46 H46        -6.6163   -9.1579   38.9450 H         1 UNK         0.0600 
     47 H47        -4.0376   -7.5379   39.1614 H         1 UNK         0.0600 
     48 H48        -4.9283  -14.8185   31.8843 H         1 UNK         0.0600 
     49 H49        -3.2943  -14.4104   31.3494 H         1 UNK         0.0600 
     50 H50        -3.5246  -15.5132   32.7064 H         1 UNK         0.0600 
     51 H51       -11.1995   -6.9127   36.2287 H         1 UNK         0.0300 
     52 H52       -10.9167   -6.8461   37.9637 H         1 UNK         0.0300 
     53 H53        -9.7206   -7.6055   36.8834 H         1 UNK         0.0300 
     54 H54        -5.3252   -0.6945   38.5907 H         1 UNK         0.0300 
     55 H55        -4.7172   -2.3191   38.8837 H         1 UNK         0.0300 
     56 H56        -5.9606   -1.6166   39.9477 H         1 UNK         0.0300 
     57 H57        -8.2764   -2.5661   34.5024 H         1 UNK         0.0300 
     58 H58        -7.9078   -4.2477   34.8850 H         1 UNK         0.0300 
     59 H59        -6.8293   -2.9519   35.4335 H         1 UNK         0.0300 
@<TRIPOS>BOND
     1    1    3 ar   
     2    1    7 ar   
     3    1   33 1    
     4    2    4 ar   
     5    2    7 ar   
     6    2   34 1    
     7    3    9 ar   
     8    3   35 1    
     9    4    9 ar   
    10    4   36 1    
    11    5    8 ar   
    12    5   10 ar   
    13    5   37 1    
    14    6    8 ar   
    15    6   11 ar   
    16    6   38 1    
    17    7   13 1    
    18    8   15 1    
    19    9   21 1    
    20   10   12 ar   
    21   10   30 1    
    22   11   12 ar   
    23   11   31 1    
    24   12   32 1    
    25   13   25 1    
    26   13   26 2    
    27   14   20 1    
    28   14   25 2    
    29   14   29 1    
    30   15   27 am   BACKBONE|DICT|INTERRES
    31   15   28 2    
    32   16   17 1    
    33   16   18 1    
    34   16   39 1    
    35   16   40 1    
    36   17   20 1    
    37   17   41 1    
    38   17   42 1    
    39   18   27 1    
    40   18   43 1    
    41   18   44 1    
    42   19   20 1    
    43   19   27 1    
    44   19   45 1    
    45   19   46 1    
    46   20   47 1    
    47   21   48 1    
    48   21   49 1    
    49   21   50 1    
    50   22   30 1    
    51   22   51 1    
    52   22   52 1    
    53   22   53 1    
    54   23   31 1    
    55   23   54 1    
    56   23   55 1    
    57   23   56 1    
    58   24   32 1    
    59   24   57 1    
    60   24   58 1    
    61   24   59 1    
    62   26   29 1    
@<TRIPOS>SUBSTRUCTURE
     1 UNK         1 GROUP             0       ****    0 ROOT    
@<TRIPOS>MOLECULE
ZINC01363851_18
56   59    1
SMALL
USER_CHARGES


@<TRIPOS>ATOM
      1 C1         -4.4184  -12.5516   35.3694 C.ar      1 UNK        -0.1150 
      2 C2         -3.5833  -11.0977   33.6161 C.ar      1 UNK        -0.1150 
      3 C3         -4.4485  -13.6313   34.4641 C.ar      1 UNK        -0.1150 
      4 C4         -3.6119  -12.1735   32.7059 C.ar      1 UNK        -0.1150 
      5 C5         -8.3269   -5.9954   38.7325 C.ar      1 UNK        -0.1150 
      6 C6         -6.6914   -4.2957   39.3485 C.ar      1 UNK        -0.1150 
      7 C7         -3.9864  -11.2657   34.9634 C.ar      1 UNK         0.0000 
      8 C8         -7.2606   -5.5684   39.5526 C.ar      1 UNK        -0.1150 
      9 C9         -8.7903   -5.1813   37.6721 C.ar      1 UNK         0.0850 
     10 C10        -7.1429   -3.4613   38.2979 C.ar      1 UNK         0.0850 
     11 C11        -8.1834   -3.9236   37.4568 C.ar      1 UNK         0.0850 
     12 C12        -4.0453  -13.4423   33.1300 C.ar      1 UNK         0.1800 
     13 C13        -3.9595  -10.1342   35.9204 C.2       1 UNK         0.6647 
     14 C14        -4.1635   -9.0501   37.6731 C.2       1 UNK         0.5486 
     15 C15        -6.7740   -6.4221   40.6881 C.2       1 UNK         0.6150 
     16 C16        -4.5742   -8.9201   41.5367 C.3       1 UNK        -0.1200 
     17 C17        -4.0832   -9.4325   40.1705 C.3       1 UNK        -0.1200 
     18 C18        -6.0892   -8.6497   41.5074 C.3       1 UNK        -0.0500 
     19 C19        -6.0663   -8.2474   39.1015 C.3       1 UNK        -0.0500 
     20 C20        -4.5495   -8.5180   39.0176 C.3       1 UNK         0.0550 
     21 C21       -10.4450   -6.7988   37.0112 C.3       1 UNK         0.1100 
     22 C22        -5.6293   -1.6956   38.9170 C.3       1 UNK         0.1100 
     23 C23        -7.7880   -3.1095   35.3045 C.3       1 UNK         0.1100 
     24 N24        -4.3832  -10.2779   37.2064 N.2       1 UNK        -0.7040 
     25 N25        -3.5438   -8.9259   35.5628 N.2       1 UNK        -0.4268 
     26 N26        -6.4007   -7.7013   40.4284 N.am      1 UNK        -0.1400 
     27 O27        -6.7319   -5.9325   41.8155 O.2       1 UNK        -0.5000 
     28 O28        -3.7076   -8.1794   36.7385 O.3       1 UNK        -0.1975 
     29 O29        -9.8069   -5.5466   36.8140 O.3       1 UNK        -0.2850 
     30 O30        -6.6270   -2.2064   38.0456 O.3       1 UNK        -0.2850 
     31 O31        -8.6470   -3.1382   36.4322 O.3       1 UNK        -0.2850 
     32 Cl32       -4.0822  -14.7605   32.0193 Cl        1 UNK        -0.1800 
     33 H33        -4.7321  -12.7129   36.3907 H         1 UNK         0.1150 
     34 H34        -3.2479  -10.1294   33.2727 H         1 UNK         0.1150 
     35 H35        -4.7815  -14.6051   34.7925 H         1 UNK         0.1150 
     36 H36        -3.3019  -12.0254   31.6816 H         1 UNK         0.1150 
     37 H37        -8.7737   -6.9571   38.9335 H         1 UNK         0.1150 
     38 H38        -5.9056   -3.9802   40.0184 H         1 UNK         0.1150 
     39 H39        -4.3377   -9.6460   42.3158 H         1 UNK         0.0600 
     40 H40        -4.0456   -8.0026   41.8011 H         1 UNK         0.0600 
     41 H41        -2.9960   -9.5204   40.1663 H         1 UNK         0.0600 
     42 H42        -4.4713  -10.4399   40.0102 H         1 UNK         0.0600 
     43 H43        -6.6349   -9.5788   41.3365 H         1 UNK         0.0600 
     44 H44        -6.4215   -8.2906   42.4837 H         1 UNK         0.0600 
     45 H45        -6.3361   -7.5899   38.2767 H         1 UNK         0.0600 
     46 H46        -6.6231   -9.1719   38.9405 H         1 UNK         0.0600 
     47 H47        -4.0358   -7.5618   39.1314 H         1 UNK         0.0600 
     48 H48       -11.2228   -6.9274   36.2585 H         1 UNK         0.0300 
     49 H49       -10.9226   -6.8534   37.9904 H         1 UNK         0.0300 
     50 H50        -9.7417   -7.6255   36.9027 H         1 UNK         0.0300 
     51 H51        -5.3546   -0.6901   38.5982 H         1 UNK         0.0300 
     52 H52        -4.7264   -2.3068   38.8906 H         1 UNK         0.0300 
     53 H53        -5.9922   -1.6272   39.9435 H         1 UNK         0.0300 
     54 H54        -8.2409   -2.5048   34.5189 H         1 UNK         0.0300 
     55 H55        -7.6338   -4.1135   34.9067 H         1 UNK         0.0300 
     56 H56        -6.8160   -2.6754   35.5398 H         1 UNK         0.0300 
@<TRIPOS>BOND
     1    1    3 ar   
     2    1    7 ar   
     3    1   33 1    
     4    2    4 ar   
     5    2    7 ar   
     6    2   34 1    
     7    3   12 ar   
     8    3   35 1    
     9    4   12 ar   
    10    4   36 1    
    11    5    8 ar   
    12    5    9 ar   
    13    5   37 1    
    14    6    8 ar   
    15    6   10 ar   
    16    6   38 1    
    17    7   13 1    
    18    8   15 1    
    19    9   11 ar   
    20    9   29 1    
    21   10   11 ar   
    22   10   30 1    
    23   11   31 1    
    24   12   32 1    
    25   13   24 1    
    26   13   25 2    
    27   14   20 1    
    28   14   24 2    
    29   14   28 1    
    30   15   26 am   BACKBONE|DICT|INTERRES
    31   15   27 2    
    32   16   17 1    
    33   16   18 1    
    34   16   39 1    
    35   16   40 1    
    36   17   20 1    
    37   17   41 1    
    38   17   42 1    
    39   18   26 1    
    40   18   43 1    
    41   18   44 1    
    42   19   20 1    
    43   19   26 1    
    44   19   45 1    
    45   19   46 1    
    46   20   47 1    
    47   21   29 1    
    48   21   48 1    
    49   21   49 1    
    50   21   50 1    
    51   22   30 1    
    52   22   51 1    
    53   22   52 1    
    54   22   53 1    
    55   23   31 1    
    56   23   54 1    
    57   23   55 1    
    58   23   56 1    
    59   25   28 1    
@<TRIPOS>SUBSTRUCTURE
     1 UNK         1 GROUP             0       ****    0 ROOT    
@<TRIPOS>MOLECULE
ZINC01364760_78
56   59    1
SMALL
USER_CHARGES


@<TRIPOS>ATOM
      1 C1         -4.9346  -11.7422   33.6438 C.2       1 UNK        -0.1540 
      2 C2         -3.7756  -12.4790   33.2717 C.2       1 UNK        -0.1540 
      3 C3         -7.7835   -5.7246   38.7260 C.ar      1 UNK        -0.1150 
      4 C4         -6.2357   -4.0073   39.4739 C.ar      1 UNK        -0.1150 
      5 C5         -6.7785   -5.2968   39.6175 C.ar      1 UNK        -0.1150 
      6 C6         -8.2047   -4.9076   37.6475 C.ar      1 UNK         0.0850 
      7 C7         -6.6449   -3.1642   38.4147 C.ar      1 UNK         0.0850 
      8 C8         -7.6098   -3.6219   37.4867 C.ar      1 UNK         0.0850 
      9 C9         -4.7948  -11.4359   34.9698 C.2       1 UNK         0.1230 
     10 C10        -3.0062  -12.5708   34.3975 C.2       1 UNK         0.0080 
     11 C11        -5.6444  -10.7029   35.9062 C.2       1 UNK         0.6647 
     12 C12        -6.3458   -9.8401   37.6422 C.2       1 UNK         0.5486 
     13 C13        -6.3385   -6.1541   40.7715 C.2       1 UNK         0.6150 
     14 C14        -6.4503   -9.6016   41.5203 C.3       1 UNK        -0.1200 
     15 C15        -6.3290  -10.2628   40.1343 C.3       1 UNK        -0.1200 
     16 C16        -5.5623   -8.3464   41.6191 C.3       1 UNK        -0.0500 
     17 C17        -5.6269   -8.0088   39.2091 C.3       1 UNK        -0.0500 
     18 C18        -6.5331   -9.2388   38.9984 C.3       1 UNK         0.0550 
     19 C19        -1.6871  -13.1951   34.6954 C.3       1 UNK        -0.0650 
     20 C20        -9.7050   -6.6288   36.8538 C.3       1 UNK         0.1100 
     21 C21        -5.2212   -1.3745   39.1691 C.3       1 UNK         0.1100 
     22 C22        -8.2864   -3.2415   35.2031 C.3       1 UNK         0.1100 
     23 N23        -5.2910  -10.5247   37.2079 N.2       1 UNK        -0.7040 
     24 N24        -6.7912  -10.1694   35.5081 N.2       1 UNK        -0.4268 
     25 N25        -5.9000   -7.4172   40.5295 N.am      1 UNK        -0.1400 
     26 O26        -6.3779   -5.6709   41.9016 O.2       1 UNK        -0.5000 
     27 O27        -3.6163  -11.9412   35.4398 O.3       1 UNK        -0.1900 
     28 O28        -7.2622   -9.5596   36.6799 O.3       1 UNK        -0.1975 
     29 O29        -9.1955   -5.3056   36.7717 O.3       1 UNK        -0.2850 
     30 O30        -6.1375   -1.8955   38.2183 O.3       1 UNK        -0.2850 
     31 O31        -7.9349   -2.7328   36.4809 O.3       1 UNK        -0.2850 
     32 H32        -5.7754  -11.4620   33.0268 H         1 UNK         0.1260 
     33 H33        -3.5348  -12.8883   32.3012 H         1 UNK         0.1260 
     34 H34        -8.2321   -6.6890   38.8988 H         1 UNK         0.1150 
     35 H35        -5.4998   -3.6862   40.1957 H         1 UNK         0.1150 
     36 H36        -7.4896   -9.3264   41.7075 H         1 UNK         0.0600 
     37 H37        -6.1780  -10.3152   42.2993 H         1 UNK         0.0600 
     38 H38        -5.3386  -10.7115   40.0396 H         1 UNK         0.0600 
     39 H39        -7.0443  -11.0808   40.0399 H         1 UNK         0.0600 
     40 H40        -5.6838   -7.8991   42.6076 H         1 UNK         0.0600 
     41 H41        -4.5084   -8.6193   41.5467 H         1 UNK         0.0600 
     42 H42        -4.5801   -8.3148   39.1673 H         1 UNK         0.0600 
     43 H43        -5.7419   -7.3074   38.3840 H         1 UNK         0.0600 
     44 H44        -7.5705   -8.9062   39.0464 H         1 UNK         0.0600 
     45 H45        -0.9627  -12.4383   34.9966 H         1 UNK         0.0600 
     46 H46        -1.7767  -13.9189   35.5053 H         1 UNK         0.0600 
     47 H47        -1.2928  -13.7119   33.8205 H         1 UNK         0.0600 
     48 H48       -10.4148   -6.7896   36.0425 H         1 UNK         0.0300 
     49 H49       -10.2361   -6.7945   37.7917 H         1 UNK         0.0300 
     50 H50        -8.9123   -7.3699   36.7460 H         1 UNK         0.0300 
     51 H51        -4.9575   -0.3541   38.8911 H         1 UNK         0.0300 
     52 H52        -4.2995   -1.9573   39.1952 H         1 UNK         0.0300 
     53 H53        -5.6582   -1.3403   40.1681 H         1 UNK         0.0300 
     54 H54        -8.0732   -2.4836   34.4495 H         1 UNK         0.0300 
     55 H55        -9.3525   -3.4620   35.1464 H         1 UNK         0.0300 
     56 H56        -7.7144   -4.1333   34.9416 H         1 UNK         0.0300 
@<TRIPOS>BOND
     1    1    2 1    
     2    1    9 2    
     3    1   32 1    
     4    2   10 2    
     5    2   33 1    
     6    3    5 ar   
     7    3    6 ar   
     8    3   34 1    
     9    4    5 ar   
    10    4    7 ar   
    11    4   35 1    
    12    5   13 1    
    13    6    8 ar   
    14    6   29 1    
    15    7    8 ar   
    16    7   30 1    
    17    8   31 1    
    18    9   11 1    
    19    9   27 1    
    20   10   19 1    
    21   10   27 1    
    22   11   23 1    
    23   11   24 2    
    24   12   18 1    
    25   12   23 2    
    26   12   28 1    
    27   13   25 am   BACKBONE|DICT|INTERRES
    28   13   26 2    
    29   14   15 1    
    30   14   16 1    
    31   14   36 1    
    32   14   37 1    
    33   15   18 1    
    34   15   38 1    
    35   15   39 1    
    36   16   25 1    
    37   16   40 1    
    38   16   41 1    
    39   17   18 1    
    40   17   25 1    
    41   17   42 1    
    42   17   43 1    
    43   18   44 1    
    44   19   45 1    
    45   19   46 1    
    46   19   47 1    
    47   20   29 1    
    48   20   48 1    
    49   20   49 1    
    50   20   50 1    
    51   21   30 1    
    52   21   51 1    
    53   21   52 1    
    54   21   53 1    
    55   22   31 1    
    56   22   54 1    
    57   22   55 1    
    58   22   56 1    
    59   24   28 1    
@<TRIPOS>SUBSTRUCTURE
     1 UNK         1 GROUP             0       ****    0 ROOT    
@<TRIPOS>MOLECULE
ZINC01364764_33
56   59    1
SMALL
USER_CHARGES


@<TRIPOS>ATOM
      1 C1         -3.4816  -11.2355   33.6846 C.2       1 UNK        -0.1540 
      2 C2         -3.7216  -12.5762   33.2724 C.2       1 UNK        -0.1540 
      3 C3         -6.7030   -4.2658   39.3755 C.ar      1 UNK        -0.1150 
      4 C4         -8.3402   -5.9659   38.7623 C.ar      1 UNK        -0.1150 
      5 C5         -7.2717   -5.5389   39.5798 C.ar      1 UNK        -0.1150 
      6 C6         -7.1582   -3.4317   38.3265 C.ar      1 UNK         0.0850 
      7 C7         -8.8100   -5.1494   37.7066 C.ar      1 UNK         0.0850 
      8 C8         -8.2044   -3.8909   37.4930 C.ar      1 UNK         0.0850 
      9 C9         -3.8801  -11.1501   34.9907 C.2       1 UNK         0.1230 
     10 C10        -4.2515  -13.2179   34.3566 C.2       1 UNK         0.0080 
     11 C11        -3.8824  -10.0483   35.9510 C.2       1 UNK         0.6647 
     12 C12        -4.1295   -8.9827   37.6991 C.2       1 UNK         0.5486 
     13 C13        -6.7811   -6.3962   40.7105 C.2       1 UNK         0.6150 
     14 C14        -4.5815   -8.8870   41.5587 C.3       1 UNK        -0.1200 
     15 C15        -4.0721   -9.3822   40.1927 C.3       1 UNK        -0.1200 
     16 C16        -6.0983   -8.6292   41.5150 C.3       1 UNK        -0.0500 
     17 C17        -6.0547   -8.2042   39.1135 C.3       1 UNK        -0.0500 
     18 C18        -4.5349   -8.4622   39.0423 C.3       1 UNK         0.0550 
     19 C19        -4.7181  -14.6112   34.6021 C.3       1 UNK        -0.0650 
     20 C20        -5.6251   -1.6757   38.9188 C.3       1 UNK         0.1100 
     21 C21       -10.4922   -6.7487   37.0743 C.3       1 UNK         0.1100 
     22 C22        -7.8853   -3.1977   35.2949 C.3       1 UNK         0.1100 
     23 N23        -4.3502  -10.2042   37.2187 N.2       1 UNK        -0.7040 
     24 N24        -3.4398   -8.8467   35.6084 N.2       1 UNK        -0.4268 
     25 N25        -6.4050   -7.6726   40.4424 N.am      1 UNK        -0.1400 
     26 O26        -6.7420   -5.9138   41.8409 O.2       1 UNK        -0.5000 
     27 O27        -4.3527  -12.3610   35.4103 O.3       1 UNK        -0.1900 
     28 O28        -3.6306   -8.1090   36.7865 O.3       1 UNK        -0.1975 
     29 O29        -6.6368   -2.1819   38.0614 O.3       1 UNK        -0.2850 
     30 O30        -9.8312   -5.5126   36.8531 O.3       1 UNK        -0.2850 
     31 O31        -8.6640   -3.0969   36.4746 O.3       1 UNK        -0.2850 
     32 H32        -3.0681  -10.4220   33.1066 H         1 UNK         0.1260 
     33 H33        -3.5306  -13.0152   32.3038 H         1 UNK         0.1260 
     34 H34        -5.9127   -3.9519   40.0409 H         1 UNK         0.1150 
     35 H35        -8.7833   -6.9297   38.9613 H         1 UNK         0.1150 
     36 H36        -4.3475   -9.6187   42.3332 H         1 UNK         0.0600 
     37 H37        -4.0632   -7.9679   41.8374 H         1 UNK         0.0600 
     38 H38        -2.9844   -9.4613   40.1986 H         1 UNK         0.0600 
     39 H39        -4.4500  -10.3913   40.0194 H         1 UNK         0.0600 
     40 H40        -6.6339   -9.5613   41.3285 H         1 UNK         0.0600 
     41 H41        -6.4452   -8.2826   42.4907 H         1 UNK         0.0600 
     42 H42        -6.3234   -7.5417   38.2922 H         1 UNK         0.0600 
     43 H43        -6.6021   -9.1319   38.9396 H         1 UNK         0.0600 
     44 H44        -4.0305   -7.5026   39.1682 H         1 UNK         0.0600 
     45 H45        -3.9918  -15.1604   35.2016 H         1 UNK         0.0600 
     46 H46        -5.6678  -14.6125   35.1373 H         1 UNK         0.0600 
     47 H47        -4.8585  -15.1471   33.6633 H         1 UNK         0.0600 
     48 H48        -5.3409   -0.6768   38.5880 H         1 UNK         0.0300 
     49 H49        -4.7300   -2.2984   38.8906 H         1 UNK         0.0300 
     50 H50        -5.9783   -1.5935   39.9476 H         1 UNK         0.0300 
     51 H51       -11.2815   -6.8704   36.3328 H         1 UNK         0.0300 
     52 H52       -10.9590   -6.7808   38.0598 H         1 UNK         0.0300 
     53 H53        -9.8080   -7.5914   36.9681 H         1 UNK         0.0300 
     54 H54        -8.3030   -2.5476   34.5264 H         1 UNK         0.0300 
     55 H55        -7.8891   -4.2184   34.9096 H         1 UNK         0.0300 
     56 H56        -6.8522   -2.8931   35.4669 H         1 UNK         0.0300 
@<TRIPOS>BOND
     1    1    2 1    
     2    1    9 2    
     3    1   32 1    
     4    2   10 2    
     5    2   33 1    
     6    3    5 ar   
     7    3    6 ar   
     8    3   34 1    
     9    4    5 ar   
    10    4    7 ar   
    11    4   35 1    
    12    5   13 1    
    13    6    8 ar   
    14    6   29 1    
    15    7    8 ar   
    16    7   30 1    
    17    8   31 1    
    18    9   11 1    
    19    9   27 1    
    20   10   19 1    
    21   10   27 1    
    22   11   23 1    
    23   11   24 2    
    24   12   18 1    
    25   12   23 2    
    26   12   28 1    
    27   13   25 am   BACKBONE|DICT|INTERRES
    28   13   26 2    
    29   14   15 1    
    30   14   16 1    
    31   14   36 1    
    32   14   37 1    
    33   15   18 1    
    34   15   38 1    
    35   15   39 1    
    36   16   25 1    
    37   16   40 1    
    38   16   41 1    
    39   17   18 1    
    40   17   25 1    
    41   17   42 1    
    42   17   43 1    
    43   18   44 1    
    44   19   45 1    
    45   19   46 1    
    46   19   47 1    
    47   20   29 1    
    48   20   48 1    
    49   20   49 1    
    50   20   50 1    
    51   21   30 1    
    52   21   51 1    
    53   21   52 1    
    54   21   53 1    
    55   22   31 1    
    56   22   54 1    
    57   22   55 1    
    58   22   56 1    
    59   24   28 1    
@<TRIPOS>SUBSTRUCTURE
     1 UNK         1 GROUP             0       ****    0 ROOT    
@<TRIPOS>MOLECULE
ZINC01394387_55
42   44    1
SMALL
USER_CHARGES


@<TRIPOS>ATOM
      1 C1        -11.2736   -5.8146   39.0818 C.ar      1 UNK        -0.1150 
      2 C2        -11.4752   -5.6822   37.6966 C.ar      1 UNK        -0.1150 
      3 C3         -7.7588  -13.0465   35.2633 C.ar      1 UNK        -0.1150 
      4 C4         -7.6866  -14.4408   35.0866 C.ar      1 UNK        -0.1150 
      5 C5         -7.7739  -12.5023   36.5615 C.ar      1 UNK        -0.1150 
      6 C6        -10.6411   -6.9617   39.5942 C.ar      1 UNK        -0.1150 
      7 C7        -11.0440   -6.6967   36.8212 C.ar      1 UNK        -0.1150 
      8 C8         -7.6529  -14.7430   37.5055 C.ar      1 UNK        -0.1150 
      9 C9         -7.6303  -15.2955   36.2073 C.ar      1 UNK         0.1500 
     10 C10        -7.7149  -13.3435   37.6984 C.ar      1 UNK         0.2000 
     11 C11       -10.2054   -7.9851   38.7191 C.ar      1 UNK         0.0850 
     12 C12       -10.4048   -7.8575   37.3250 C.ar      1 UNK         0.0850 
     13 C13        -7.3758  -12.9328   41.3965 C.ar      1 UNK        -0.1150 
     14 C14        -7.2505  -13.4338   40.1559 C.ar      1 UNK         0.0075 
     15 C15        -8.0516  -11.6392   41.6011 C.ar      1 UNK         0.4700 
     16 C16        -8.5213  -10.9644   40.3382 C.ar      1 UNK         0.4529 
     17 C17        -9.1964   -9.6178   40.3628 C.2       1 UNK         0.3238 
     18 C18       -10.1672   -8.8068   35.1284 C.3       1 UNK         0.1100 
     19 C19        -7.5681  -16.8044   36.0230 C.3       1 UNK         0.4500 
     20 N20        -8.3478  -11.5451   39.1802 N.2       1 UNK        -0.3551 
     21 N21        -7.7396  -12.7765   39.0114 N.pl3     1 UNK        -0.2441 
     22 N22        -9.5631   -9.1781   39.1405 N.am      1 UNK        -0.3850 
     23 O23        -8.1968  -11.1829   42.7362 O.2       1 UNK        -0.4700 
     24 O24        -9.3908   -8.9786   41.3962 O.2       1 UNK        -0.5000 
     25 O25        -9.9529   -8.8939   36.5294 O.3       1 UNK        -0.2850 
     26 F26        -6.9653  -17.1186   34.8761 F         1 UNK        -0.2000 
     27 F27        -6.8923  -17.3719   37.0227 F         1 UNK        -0.2000 
     28 F28        -8.8062  -17.2945   36.0085 F         1 UNK        -0.2000 
     29 H29       -11.6041   -5.0382   39.7564 H         1 UNK         0.1150 
     30 H30       -11.9615   -4.8005   37.3050 H         1 UNK         0.1150 
     31 H31        -7.8028  -12.3928   34.4039 H         1 UNK         0.1150 
     32 H32        -7.6793  -14.8595   34.0902 H         1 UNK         0.1150 
     33 H33        -7.8249  -11.4287   36.6737 H         1 UNK         0.1150 
     34 H34       -10.5040   -7.0319   40.6622 H         1 UNK         0.1150 
     35 H35       -11.2165   -6.5579   35.7655 H         1 UNK         0.1150 
     36 H36        -7.6431  -15.4204   38.3445 H         1 UNK         0.1150 
     37 H37        -6.9793  -13.4458   42.2591 H         1 UNK         0.1150 
     38 H38        -6.7269  -14.3594   39.9682 H         1 UNK         0.1150 
     39 H39        -9.7657   -9.6987   34.6471 H         1 UNK         0.0300 
     40 H40        -9.6579   -7.9428   34.6991 H         1 UNK         0.0300 
     41 H41       -11.2308   -8.7554   34.8912 H         1 UNK         0.0300 
     42 H42        -9.3362   -9.8115   38.3847 H         1 UNK         0.3000 
@<TRIPOS>BOND
     1    1    2 ar   
     2    1    6 ar   
     3    1   29 1    
     4    2    7 ar   
     5    2   30 1    
     6    3    4 ar   
     7    3    5 ar   
     8    3   31 1    
     9    4    9 ar   
    10    4   32 1    
    11    5   10 ar   
    12    5   33 1    
    13    6   11 ar   
    14    6   34 1    
    15    7   12 ar   
    16    7   35 1    
    17    8    9 ar   
    18    8   10 ar   
    19    8   36 1    
    20    9   19 1    
    21   10   21 1    
    22   11   12 ar   
    23   11   22 1    
    24   12   25 1    
    25   13   14 ar   
    26   13   15 ar   
    27   13   37 1    
    28   14   21 ar   
    29   14   38 1    
    30   15   16 ar   
    31   15   23 2    
    32   16   17 1    
    33   16   20 ar   
    34   17   22 am   BACKBONE|DICT|INTERRES
    35   17   24 2    
    36   18   25 1    
    37   18   39 1    
    38   18   40 1    
    39   18   41 1    
    40   19   26 1    
    41   19   27 1    
    42   19   28 1    
    43   20   21 ar   
    44   22   42 1    
@<TRIPOS>SUBSTRUCTURE
     1 UNK         1 GROUP             0       ****    0 ROOT    
@<TRIPOS>MOLECULE
ZINC01394982_80
50   52    1
SMALL
USER_CHARGES


@<TRIPOS>ATOM
      1 C1        -14.1994  -10.1733   39.4103 C.ar      1 UNK        -0.1150 
      2 C2        -13.4655  -11.0993   40.1738 C.ar      1 UNK        -0.1150 
      3 C3        -11.0751  -16.7317   36.8401 C.ar      1 UNK        -0.1150 
      4 C4         -8.7075  -15.3415   37.4132 C.ar      1 UNK        -0.1150 
      5 C5        -11.4162  -10.3344   39.1048 C.ar      1 UNK        -0.1150 
      6 C6        -11.1112  -15.5765   37.6428 C.ar      1 UNK        -0.1150 
      7 C7         -9.9300  -14.8797   37.9300 C.ar      1 UNK        -0.1150 
      8 C8        -13.5555   -9.3163   38.4769 C.ar      1 UNK         0.0850 
      9 C9         -9.8475  -17.2124   36.3093 C.ar      1 UNK         0.0850 
     10 C10        -8.6438  -16.5040   36.6173 C.ar      1 UNK         0.0850 
     11 C11       -12.1346   -9.3968   38.3370 C.ar      1 UNK         0.0850 
     12 C12       -12.0743  -11.1813   40.0098 C.ar      1 UNK         0.1567 
     13 C13       -12.3991  -15.0347   38.2252 C.3       1 UNK         0.0317 
     14 C14       -10.0197  -13.6165   38.7689 C.3       1 UNK         0.2105 
     15 C15       -12.1897  -14.5791   39.6828 C.3       1 UNK         0.0588 
     16 C16       -15.6737   -8.3202   37.8712 C.3       1 UNK         0.1100 
     17 C17       -10.9995  -19.0089   35.1730 C.3       1 UNK         0.1100 
     18 C18        -7.0941  -18.1153   35.6681 C.3       1 UNK         0.1100 
     19 C19       -11.8562   -7.4463   36.9169 C.3       1 UNK         0.1100 
     20 N20       -11.0059  -13.7048   39.8655 N.pl3     1 UNK        -0.5376 
     21 O21        -9.7745  -11.8415   41.1552 O.2       1 UNK        -0.4680 
     22 O22       -11.9474  -12.8184   42.0931 O.2       1 UNK        -0.4680 
     23 O23       -14.2685   -8.4299   37.6954 O.3       1 UNK        -0.2850 
     24 O24        -9.7963  -18.3271   35.4953 O.3       1 UNK        -0.2850 
     25 O25        -7.3687  -16.8269   36.1939 O.3       1 UNK        -0.2850 
     26 O26       -11.3487   -8.6424   37.4878 O.3       1 UNK        -0.2850 
     27 S27       -11.1299  -12.3733   40.9548 S.o2      1 UNK         0.8327 
     28 H28       -15.2672  -10.1491   39.5606 H         1 UNK         0.1150 
     29 H29       -13.9613  -11.7478   40.8815 H         1 UNK         0.1150 
     30 H30       -12.0091  -17.2320   36.6402 H         1 UNK         0.1150 
     31 H31        -7.7953  -14.8056   37.6303 H         1 UNK         0.1150 
     32 H32       -10.3428  -10.4020   39.0049 H         1 UNK         0.1150 
     33 H33       -12.7322  -14.1966   37.6118 H         1 UNK         0.0600 
     34 H34       -13.1832  -15.7914   38.1801 H         1 UNK         0.0600 
     35 H35        -9.0400  -13.3912   39.1934 H         1 UNK         0.0733 
     36 H36       -10.2783  -12.7854   38.1130 H         1 UNK         0.0733 
     37 H37       -13.0870  -14.0804   40.0499 H         1 UNK         0.0733 
     38 H38       -12.0491  -15.4535   40.3196 H         1 UNK         0.0733 
     39 H39       -16.0603   -7.5605   37.1920 H         1 UNK         0.0300 
     40 H40       -15.9267   -8.0120   38.8865 H         1 UNK         0.0300 
     41 H41       -16.1803   -9.2571   37.6363 H         1 UNK         0.0300 
     42 H42       -10.7697  -19.8501   34.5192 H         1 UNK         0.0300 
     43 H43       -11.6959  -18.3607   34.6396 H         1 UNK         0.0300 
     44 H44       -11.4832  -19.4093   36.0650 H         1 UNK         0.0300 
     45 H45        -6.0145  -18.2495   35.6048 H         1 UNK         0.0300 
     46 H46        -7.4916  -18.2255   34.6591 H         1 UNK         0.0300 
     47 H47        -7.4829  -18.9071   36.3098 H         1 UNK         0.0300 
     48 H48       -12.3241   -6.8054   37.6655 H         1 UNK         0.0300 
     49 H49       -12.5636   -7.6572   36.1144 H         1 UNK         0.0300 
     50 H50       -11.0312   -6.8852   36.4786 H         1 UNK         0.0300 
@<TRIPOS>BOND
     1    1    2 ar   
     2    1    8 ar   
     3    1   28 1    
     4    2   12 ar   
     5    2   29 1    
     6    3    6 ar   
     7    3    9 ar   
     8    3   30 1    
     9    4    7 ar   
    10    4   10 ar   
    11    4   31 1    
    12    5   11 ar   
    13    5   12 ar   
    14    5   32 1    
    15    6    7 ar   
    16    6   13 1    
    17    7   14 1    
    18    8   11 ar   
    19    8   23 1    
    20    9   10 ar   
    21    9   24 1    
    22   10   25 1    
    23   11   26 1    
    24   12   27 1    
    25   13   15 1    
    26   13   33 1    
    27   13   34 1    
    28   14   20 1    
    29   14   35 1    
    30   14   36 1    
    31   15   20 1    
    32   15   37 1    
    33   15   38 1    
    34   16   23 1    
    35   16   39 1    
    36   16   40 1    
    37   16   41 1    
    38   17   24 1    
    39   17   42 1    
    40   17   43 1    
    41   17   44 1    
    42   18   25 1    
    43   18   45 1    
    44   18   46 1    
    45   18   47 1    
    46   19   26 1    
    47   19   48 1    
    48   19   49 1    
    49   19   50 1    
    50   20   27 1    
    51   21   27 2    
    52   22   27 2    
@<TRIPOS>SUBSTRUCTURE
     1 UNK         1 GROUP             0       ****    0 ROOT    
@<TRIPOS>MOLECULE
ZINC01428339_231
42   44    1
SMALL
USER_CHARGES


@<TRIPOS>ATOM
      1 C1         -4.5058  -12.1801   36.8712 C.ar      1 UNK         0.0055 
      2 C2         -5.0201  -13.4025   37.3443 C.ar      1 UNK        -0.3011 
      3 C3         -4.8514  -10.9743   37.5130 C.ar      1 UNK        -0.4461 
      4 C4         -5.8795  -13.4194   38.4592 C.ar      1 UNK        -0.1407 
      5 C5         -9.3381   -6.6482   38.5296 C.ar      1 UNK        -0.1150 
      6 C6         -8.2783   -4.7072   39.5531 C.ar      1 UNK        -0.1150 
      7 C7         -8.4743   -6.1042   39.5079 C.ar      1 UNK        -0.1150 
      8 C8         -5.7096  -10.9591   38.6321 C.ar      1 UNK         0.6314 
      9 C9        -10.0012   -5.8095   37.6019 C.ar      1 UNK         0.0850 
     10 C10        -8.9384   -3.8489   38.6415 C.ar      1 UNK         0.0850 
     11 C11        -9.7910   -4.4145   37.6649 C.ar      1 UNK         0.0850 
     12 C12        -6.2174  -12.2091   39.0926 C.ar      1 UNK        -0.1027 
     13 C13        -6.9389  -10.2097   40.3440 C.2       1 UNK         0.2008 
     14 C14        -7.7607   -6.9681   40.4906 C.2       1 UNK         0.6250 
     15 C15       -11.0775   -7.6718   36.5233 C.3       1 UNK         0.1100 
     16 C16        -8.0046   -1.8797   39.6623 C.3       1 UNK         0.1100 
     17 C17        -9.6258   -3.1458   35.7145 C.3       1 UNK         0.1100 
     18 C18        -7.5587   -9.2235   41.2798 C.3       1 UNK         0.3050 
     19 N19        -6.1221   -9.8407   39.3466 N.2       1 UNK        -0.5991 
     20 O20        -6.8861   -6.5479   41.2499 O.2       1 UNK        -0.4300 
     21 O21       -10.8468   -6.2744   36.6152 O.3       1 UNK        -0.2850 
     22 O22        -8.8030   -2.4752   38.6508 O.3       1 UNK        -0.2850 
     23 O23       -10.4494   -3.6077   36.7721 O.3       1 UNK        -0.2850 
     24 O24        -8.1997   -8.2376   40.4833 O.3       1 UNK        -0.3300 
     25 S25        -7.2578  -11.9437   40.4874 S.3       1 UNK        -0.0839 
     26 H26        -3.8455  -12.1659   36.0151 H         1 UNK         0.1296 
     27 H27        -4.7542  -14.3276   36.8498 H         1 UNK         0.1749 
     28 H28        -4.4595  -10.0360   37.1523 H         1 UNK         0.2114 
     29 H29        -6.2806  -14.3511   38.8305 H         1 UNK         0.2050 
     30 H30        -9.4777   -7.7171   38.4932 H         1 UNK         0.1150 
     31 H31        -7.6155   -4.3094   40.3067 H         1 UNK         0.1150 
     32 H32       -11.7638   -7.8683   35.6998 H         1 UNK         0.0300 
     33 H33       -11.5357   -8.0605   37.4336 H         1 UNK         0.0300 
     34 H34       -10.1546   -8.2166   36.3198 H         1 UNK         0.0300 
     35 H35        -8.0262   -0.7965   39.5447 H         1 UNK         0.0300 
     36 H36        -6.9639   -2.1981   39.5892 H         1 UNK         0.0300 
     37 H37        -8.3860   -2.1100   40.6580 H         1 UNK         0.0300 
     38 H38       -10.2200   -2.5441   35.0271 H         1 UNK         0.0300 
     39 H39        -9.2080   -3.9822   35.1521 H         1 UNK         0.0300 
     40 H40        -8.8055   -2.5256   36.0765 H         1 UNK         0.0300 
     41 H41        -8.3019   -9.7267   41.8981 H         1 UNK         0.0300 
     42 H42        -6.7913   -8.8259   41.9448 H         1 UNK         0.0300 
@<TRIPOS>BOND
     1    1    2 ar   
     2    1    3 ar   
     3    1   26 1    
     4    2    4 ar   
     5    2   27 1    
     6    3    8 ar   
     7    3   28 1    
     8    4   12 ar   
     9    4   29 1    
    10    5    7 ar   
    11    5    9 ar   
    12    5   30 1    
    13    6    7 ar   
    14    6   10 ar   
    15    6   31 1    
    16    7   14 1    
    17    8   12 ar   
    18    8   19 1    
    19    9   11 ar   
    20    9   21 1    
    21   10   11 ar   
    22   10   22 1    
    23   11   23 1    
    24   12   25 1    
    25   13   18 1    
    26   13   19 2    
    27   13   25 1    
    28   14   20 2    
    29   14   24 1    
    30   15   21 1    
    31   15   32 1    
    32   15   33 1    
    33   15   34 1    
    34   16   22 1    
    35   16   35 1    
    36   16   36 1    
    37   16   37 1    
    38   17   23 1    
    39   17   38 1    
    40   17   39 1    
    41   17   40 1    
    42   18   24 1    
    43   18   41 1    
    44   18   42 1    
@<TRIPOS>SUBSTRUCTURE
     1 UNK         1 GROUP             0       ****    0 ROOT    
@<TRIPOS>MOLECULE
ZINC01443389_6
48   51    1
SMALL
USER_CHARGES


@<TRIPOS>ATOM
      1 C1         -4.1930  -11.0811   35.2733 C.ar      1 UNK        -0.1150 
      2 C2         -3.9050  -11.6905   36.5086 C.ar      1 UNK        -0.1150 
      3 C3         -4.8160   -9.8196   35.2428 C.ar      1 UNK        -0.1150 
      4 C4         -4.2381  -11.0402   37.7125 C.ar      1 UNK        -0.1150 
      5 C5         -5.1509   -9.1677   36.4449 C.ar      1 UNK        -0.1150 
      6 C6         -7.7670   -6.1227   38.7080 C.ar      1 UNK        -0.1150 
      7 C7         -6.8261   -4.0568   39.5886 C.ar      1 UNK        -0.1150 
      8 C8         -6.9514   -5.4586   39.6502 C.ar      1 UNK        -0.1150 
      9 C9         -4.8644   -9.7703   37.6946 C.ar      1 UNK         0.0850 
     10 C10        -8.4184   -5.4039   37.6788 C.ar      1 UNK         0.0850 
     11 C11        -7.4832   -3.3131   38.5787 C.ar      1 UNK         0.0850 
     12 C12        -8.2635   -4.0014   37.6199 C.ar      1 UNK         0.0850 
     13 C13        -5.8832   -9.6962   39.9224 C.2       1 UNK         0.6305 
     14 C14        -5.0071   -7.8051   39.1745 C.2       1 UNK         0.7530 
     15 C15        -7.4735   -8.4122   41.5278 C.3       1 UNK         0.0475 
     16 C16        -6.2187   -6.2277   40.7486 C.3       1 UNK         0.2722 
     17 C17        -6.0582   -8.6825   41.0286 C.3       1 UNK         0.0625 
     18 C18        -9.3221   -7.4106   36.7053 C.3       1 UNK         0.1100 
     19 C19        -6.7128   -1.2183   39.4766 C.3       1 UNK         0.1100 
     20 C20        -8.0440   -2.9151   35.5690 C.3       1 UNK         0.1100 
     21 N21        -5.2105   -9.1150   38.9168 N.am      1 UNK        -0.3300 
     22 N22        -5.6259   -7.4999   40.3275 N.am      1 UNK        -0.2947 
     23 O23        -6.3109  -10.8481   39.9844 O.2       1 UNK        -0.5080 
     24 O24        -4.4392   -6.9944   38.4449 O.2       1 UNK        -0.5080 
     25 O25        -9.1977   -5.9967   36.7062 O.3       1 UNK        -0.2850 
     26 O26        -7.4080   -1.9390   38.4711 O.3       1 UNK        -0.2850 
     27 O27        -8.9046   -3.3086   36.6249 O.3       1 UNK        -0.2850 
     28 S28        -7.4364   -6.6752   42.0266 S.3       1 UNK        -0.3350 
     29 H29        -3.9369  -11.5811   34.3500 H         1 UNK         0.1150 
     30 H30        -3.4282  -12.6598   36.5337 H         1 UNK         0.1150 
     31 H31        -5.0368   -9.3487   34.2957 H         1 UNK         0.1150 
     32 H32        -4.0120  -11.5294   38.6492 H         1 UNK         0.1150 
     33 H33        -5.6285   -8.1991   36.3939 H         1 UNK         0.1150 
     34 H34        -7.8773   -7.1912   38.7833 H         1 UNK         0.1150 
     35 H35        -6.2153   -3.5672   40.3305 H         1 UNK         0.1150 
     36 H36        -8.2135   -8.5516   40.7384 H         1 UNK         0.0600 
     37 H37        -7.7466   -9.0551   42.3650 H         1 UNK         0.0600 
     38 H38        -5.4420   -5.6024   41.1916 H         1 UNK         0.0600 
     39 H39        -5.3754   -8.8953   41.8522 H         1 UNK         0.0600 
     40 H40        -9.9428   -7.7149   35.8628 H         1 UNK         0.0300 
     41 H41        -9.8039   -7.7700   37.6155 H         1 UNK         0.0300 
     42 H42        -8.3519   -7.8965   36.5919 H         1 UNK         0.0300 
     43 H43        -6.7859   -0.1509   39.2688 H         1 UNK         0.0300 
     44 H44        -5.6536   -1.4785   39.4939 H         1 UNK         0.0300 
     45 H45        -7.1465   -1.3920   40.4625 H         1 UNK         0.0300 
     46 H46        -8.6228   -2.4033   34.8005 H         1 UNK         0.0300 
     47 H47        -7.5694   -3.7833   35.1090 H         1 UNK         0.0300 
     48 H48        -7.2646   -2.2328   35.9095 H         1 UNK         0.0300 
@<TRIPOS>BOND
     1    1    2 ar   
     2    1    3 ar   
     3    1   29 1    
     4    2    4 ar   
     5    2   30 1    
     6    3    5 ar   
     7    3   31 1    
     8    4    9 ar   
     9    4   32 1    
    10    5    9 ar   
    11    5   33 1    
    12    6    8 ar   
    13    6   10 ar   
    14    6   34 1    
    15    7    8 ar   
    16    7   11 ar   
    17    7   35 1    
    18    8   16 1    
    19    9   21 1    
    20   10   12 ar   
    21   10   25 1    
    22   11   12 ar   
    23   11   26 1    
    24   12   27 1    
    25   13   17 1    
    26   13   21 am   BACKBONE|DICT|INTERRES
    27   13   23 2    
    28   14   21 am   BACKBONE|DICT|INTERRES
    29   14   22 am   BACKBONE|DICT|INTERRES
    30   14   24 2    
    31   15   17 1    
    32   15   28 1    
    33   15   36 1    
    34   15   37 1    
    35   16   22 1    
    36   16   28 1    
    37   16   38 1    
    38   17   22 1    
    39   17   39 1    
    40   18   25 1    
    41   18   40 1    
    42   18   41 1    
    43   18   42 1    
    44   19   26 1    
    45   19   43 1    
    46   19   44 1    
    47   19   45 1    
    48   20   27 1    
    49   20   46 1    
    50   20   47 1    
    51   20   48 1    
@<TRIPOS>SUBSTRUCTURE
     1 UNK         1 GROUP             0       ****    0 ROOT    
@<TRIPOS>MOLECULE
ZINC01455445_68
41   43    1
SMALL
USER_CHARGES


@<TRIPOS>ATOM
      1 C1        -17.7602  -28.1325   36.2886 C.ar      1 UNK        -0.1150 
      2 C2        -21.2795  -22.6710   37.5567 C.ar      1 UNK        -0.1150 
      3 C3        -18.0017  -27.2737   37.3789 C.ar      1 UNK        -0.1150 
      4 C4        -18.8028  -28.4553   35.3994 C.ar      1 UNK        -0.1150 
      5 C5        -21.7595  -22.0338   36.4006 C.ar      1 UNK        -0.1150 
      6 C6        -23.2875  -21.9817   38.7418 C.ar      1 UNK        -0.1150 
      7 C7        -20.3311  -27.0621   36.6938 C.ar      1 UNK        -0.1150 
      8 C8        -22.0510  -22.6618   38.7347 C.ar      1 UNK         0.0000 
      9 C9        -19.2882  -26.7315   37.5903 C.ar      1 UNK         0.0631 
     10 C10       -20.0895  -27.9196   35.6037 C.ar      1 UNK         0.1500 
     11 C11       -23.0028  -21.3712   36.3875 C.ar      1 UNK         0.0850 
     12 C12       -23.7831  -21.3270   37.5832 C.ar      1 UNK         0.0850 
     13 C13       -21.5632  -23.3217   39.9894 C.ar      1 UNK         0.4815 
     14 C14       -20.6513  -24.7884   41.4024 C.ar      1 UNK         0.3198 
     15 C15       -19.5068  -25.8340   38.7332 C.2       1 UNK         0.1451 
     16 C16       -24.6430  -20.3441   34.9170 C.3       1 UNK         0.1100 
     17 C17       -25.7242  -20.5528   38.8027 C.3       1 UNK         0.1100 
     18 N18       -21.8152  -22.8551   41.1695 N.2       1 UNK        -0.3590 
     19 N19       -20.6660  -25.3441   39.0172 N.2       1 UNK        -0.2833 
     20 N20       -21.2324  -23.7406   42.0031 N.pl3     1 UNK        -0.2218 
     21 N21       -20.8146  -24.4944   40.0880 N.pl3     1 UNK        -0.0377 
     22 O22       -21.1078  -28.2245   34.7496 O.3       1 UNK        -0.5850 
     23 O23       -23.3247  -20.8031   35.1700 O.3       1 UNK        -0.2850 
     24 O24       -24.9835  -20.6439   37.5937 O.3       1 UNK        -0.2850 
     25 S25       -19.9598  -26.0863   42.1876 S.2       1 UNK        -0.4762 
     26 H26       -16.7732  -28.5445   36.1349 H         1 UNK         0.1150 
     27 H27       -20.3179  -23.1615   37.5272 H         1 UNK         0.1150 
     28 H28       -17.1920  -27.0369   38.0551 H         1 UNK         0.1150 
     29 H29       -18.6040  -29.1147   34.5672 H         1 UNK         0.1150 
     30 H30       -21.1655  -22.0538   35.4985 H         1 UNK         0.1150 
     31 H31       -23.8467  -21.9766   39.6644 H         1 UNK         0.1150 
     32 H32       -21.3249  -26.6613   36.8355 H         1 UNK         0.1150 
     33 H33       -18.6449  -25.5816   39.3536 H         1 UNK         0.0685 
     34 H34       -24.8558  -19.4250   35.4637 H         1 UNK         0.0300 
     35 H35       -25.3895  -21.1021   35.1580 H         1 UNK         0.0300 
     36 H36       -24.7417  -20.1173   33.8556 H         1 UNK         0.0300 
     37 H37       -26.0412  -21.5358   39.1535 H         1 UNK         0.0300 
     38 H38       -25.1523  -20.0521   39.5851 H         1 UNK         0.0300 
     39 H39       -26.6237  -19.9630   38.6269 H         1 UNK         0.0300 
     40 H40       -21.3083  -23.6379   43.0056 H         1 UNK         0.3000 
     41 H41       -20.8668  -28.8250   34.0615 H         1 UNK         0.4350 
@<TRIPOS>BOND
     1    1    3 ar   
     2    1    4 ar   
     3    1   26 1    
     4    2    5 ar   
     5    2    8 ar   
     6    2   27 1    
     7    3    9 ar   
     8    3   28 1    
     9    4   10 ar   
    10    4   29 1    
    11    5   11 ar   
    12    5   30 1    
    13    6    8 ar   
    14    6   12 ar   
    15    6   31 1    
    16    7    9 ar   
    17    7   10 ar   
    18    7   32 1    
    19    8   13 1    
    20    9   15 1    
    21   10   22 1    
    22   11   12 ar   
    23   11   23 1    
    24   12   24 1    
    25   13   18 ar   
    26   13   21 ar   
    27   14   20 ar   
    28   14   21 ar   
    29   14   25 2    
    30   15   19 2    
    31   15   33 1    
    32   16   23 1    
    33   16   34 1    
    34   16   35 1    
    35   16   36 1    
    36   17   24 1    
    37   17   37 1    
    38   17   38 1    
    39   17   39 1    
    40   18   20 ar   
    41   19   21 1    
    42   20   40 1    
    43   22   41 1    
@<TRIPOS>SUBSTRUCTURE
     1 UNK         1 GROUP             0       ****    0 ROOT    
@<TRIPOS>MOLECULE
ZINC01456484_20
44   45    1
SMALL
USER_CHARGES


@<TRIPOS>ATOM
      1 C1         -6.7497   -3.9545   39.5270 C.ar      1 UNK        -0.1150 
      2 C2         -7.8910   -5.9236   38.6539 C.ar      1 UNK        -0.1150 
      3 C3         -7.0088   -5.3386   39.5877 C.ar      1 UNK        -0.1150 
      4 C4         -7.3263   -3.1555   38.5110 C.ar      1 UNK         0.0850 
      5 C5         -8.4714   -5.1462   37.6237 C.ar      1 UNK         0.0850 
      6 C6         -8.1749   -3.7655   37.5599 C.ar      1 UNK         0.0850 
      7 C7         -6.4055   -6.1561   40.6950 C.2       1 UNK         0.6150 
      8 C8         -5.3087  -10.0976   39.6299 C.3       1 UNK        -0.1200 
      9 C9         -5.7366   -9.0393   38.6057 C.3       1 UNK        -0.1200 
     10 C10        -5.7733   -9.7064   41.0402 C.3       1 UNK        -0.1200 
     11 C11        -5.2441   -7.6488   39.0368 C.3       1 UNK        -0.0500 
     12 C12        -5.3557   -8.2713   41.4333 C.3       1 UNK         0.0100 
     13 C13        -3.8689   -8.1398   41.8138 C.3       1 UNK        -0.1800 
     14 C14        -6.3415   -1.1446   39.3854 C.3       1 UNK         0.1100 
     15 C15        -9.6465   -7.0386   36.7165 C.3       1 UNK         0.1100 
     16 C16        -7.9785   -2.9748   35.3824 C.3       1 UNK         0.1100 
     17 N17        -5.7453   -7.3046   40.3833 N.am      1 UNK        -0.1400 
     18 O18        -6.5415   -5.7551   41.8507 O.2       1 UNK        -0.5000 
     19 O19        -7.1033   -1.8000   38.3828 O.3       1 UNK        -0.2850 
     20 O20        -9.3184   -5.6588   36.6626 O.3       1 UNK        -0.2850 
     21 O21        -8.7409   -2.9972   36.5760 O.3       1 UNK        -0.2850 
     22 H22        -6.0997   -3.5285   40.2765 H         1 UNK         0.1150 
     23 H23        -8.1066   -6.9763   38.7475 H         1 UNK         0.1150 
     24 H24        -5.7146  -11.0726   39.3575 H         1 UNK         0.0600 
     25 H25        -4.2230  -10.2026   39.6173 H         1 UNK         0.0600 
     26 H26        -5.3352   -9.2900   37.6228 H         1 UNK         0.0600 
     27 H27        -6.8226   -9.0374   38.5046 H         1 UNK         0.0600 
     28 H28        -6.8613   -9.7787   41.0816 H         1 UNK         0.0600 
     29 H29        -5.3994  -10.4237   41.7722 H         1 UNK         0.0600 
     30 H30        -4.1546   -7.6395   39.0597 H         1 UNK         0.0600 
     31 H31        -5.4998   -6.9172   38.2721 H         1 UNK         0.0600 
     32 H32        -5.9131   -8.0572   42.3482 H         1 UNK         0.0600 
     33 H33        -3.6287   -7.1163   42.1041 H         1 UNK         0.0600 
     34 H34        -3.2049   -8.4199   40.9967 H         1 UNK         0.0600 
     35 H35        -3.6286   -8.7816   42.6617 H         1 UNK         0.0600 
     36 H36        -6.2953   -0.0788   39.1616 H         1 UNK         0.0300 
     37 H37        -5.3176   -1.5187   39.4177 H         1 UNK         0.0300 
     38 H38        -6.7997   -1.2548   40.3693 H         1 UNK         0.0300 
     39 H39       -10.3246   -7.2779   35.8975 H         1 UNK         0.0300 
     40 H40       -10.1538   -7.2919   37.6484 H         1 UNK         0.0300 
     41 H41        -8.7601   -7.6642   36.6039 H         1 UNK         0.0300 
     42 H42        -8.4704   -2.3384   34.6471 H         1 UNK         0.0300 
     43 H43        -7.8837   -3.9732   34.9534 H         1 UNK         0.0300 
     44 H44        -6.9797   -2.5734   35.5598 H         1 UNK         0.0300 
@<TRIPOS>BOND
     1    1    3 ar   
     2    1    4 ar   
     3    1   22 1    
     4    2    3 ar   
     5    2    5 ar   
     6    2   23 1    
     7    3    7 1    
     8    4    6 ar   
     9    4   19 1    
    10    5    6 ar   
    11    5   20 1    
    12    6   21 1    
    13    7   17 am   BACKBONE|DICT|INTERRES
    14    7   18 2    
    15    8    9 1    
    16    8   10 1    
    17    8   24 1    
    18    8   25 1    
    19    9   11 1    
    20    9   26 1    
    21    9   27 1    
    22   10   12 1    
    23   10   28 1    
    24   10   29 1    
    25   11   17 1    
    26   11   30 1    
    27   11   31 1    
    28   12   13 1    
    29   12   17 1    
    30   12   32 1    
    31   13   33 1    
    32   13   34 1    
    33   13   35 1    
    34   14   19 1    
    35   14   36 1    
    36   14   37 1    
    37   14   38 1    
    38   15   20 1    
    39   15   39 1    
    40   15   40 1    
    41   15   41 1    
    42   16   21 1    
    43   16   42 1    
    44   16   43 1    
    45   16   44 1    
@<TRIPOS>SUBSTRUCTURE
     1 UNK         1 GROUP             0       ****    0 ROOT    
@<TRIPOS>MOLECULE
ZINC01511148_10
48   50    1
SMALL
USER_CHARGES


@<TRIPOS>ATOM
      1 C1         -4.2532   -7.2204   36.8493 C.ar      1 UNK        -0.1150 
      2 C2         -4.6416   -6.7814   38.1278 C.ar      1 UNK        -0.1150 
      3 C3         -7.6766   -5.9063   38.6612 C.ar      1 UNK        -0.1150 
      4 C4         -6.6599   -3.8786   39.5509 C.ar      1 UNK        -0.1150 
      5 C5         -4.7972   -9.5066   37.4742 C.ar      1 UNK        -0.1150 
      6 C6         -6.8294   -5.2778   39.6002 C.ar      1 UNK        -0.1150 
      7 C7         -5.1898   -9.0742   38.7576 C.ar      1 UNK        -0.1150 
      8 C8         -4.3402   -8.5837   36.5148 C.ar      1 UNK        -0.1150 
      9 C9         -5.1500   -7.6927   39.0885 C.ar      1 UNK        -0.0383 
     10 C10        -8.3024   -5.1596   37.6353 C.ar      1 UNK         0.0850 
     11 C11        -7.2873   -3.1087   38.5427 C.ar      1 UNK         0.0850 
     12 C12        -8.0935   -3.7615   37.5837 C.ar      1 UNK         0.0850 
     13 C13        -6.1607   -6.0703   40.6933 C.2       1 UNK         0.6150 
     14 C14        -5.6111  -10.1281   39.7718 C.3       1 UNK        -0.0050 
     15 C15        -6.1430   -9.5475   41.0884 C.3       1 UNK        -0.1200 
     16 C16        -5.4174   -8.2522   41.4748 C.3       1 UNK        -0.0500 
     17 C17        -3.9193   -9.0586   35.1399 C.3       1 UNK        -0.0650 
     18 C18        -9.2713   -7.1323   36.6585 C.3       1 UNK         0.1100 
     19 C19        -6.3992   -1.0505   39.4130 C.3       1 UNK         0.1100 
     20 C20        -8.0266   -3.0759   35.3584 C.3       1 UNK         0.1100 
     21 N21        -5.5694   -7.2641   40.3969 N.am      1 UNK        -0.0317 
     22 O22        -6.1518   -5.5901   41.8285 O.2       1 UNK        -0.5000 
     23 O23        -9.1167   -5.7210   36.6727 O.3       1 UNK        -0.2850 
     24 O24        -7.1492   -1.7410   38.4252 O.3       1 UNK        -0.2850 
     25 O25        -8.6959   -3.0120   36.6062 O.3       1 UNK        -0.2850 
     26 H26        -3.8840   -6.5042   36.1292 H         1 UNK         0.1150 
     27 H27        -4.5446   -5.7295   38.3527 H         1 UNK         0.1150 
     28 H28        -7.8209   -6.9731   38.7377 H         1 UNK         0.1150 
     29 H29        -6.0356   -3.4173   40.3014 H         1 UNK         0.1150 
     30 H30        -4.8351  -10.5583   37.2288 H         1 UNK         0.1150 
     31 H31        -6.3516  -10.7944   39.3274 H         1 UNK         0.0600 
     32 H32        -4.7320  -10.7383   39.9828 H         1 UNK         0.0600 
     33 H33        -7.2041   -9.3216   40.9721 H         1 UNK         0.0600 
     34 H34        -6.0750  -10.2899   41.8845 H         1 UNK         0.0600 
     35 H35        -5.8000   -7.9089   42.4378 H         1 UNK         0.0600 
     36 H36        -4.3538   -8.4426   41.6232 H         1 UNK         0.0600 
     37 H37        -2.8519   -9.2806   35.1296 H         1 UNK         0.0600 
     38 H38        -4.4613   -9.9611   34.8560 H         1 UNK         0.0600 
     39 H39        -4.1197   -8.2958   34.3869 H         1 UNK         0.0600 
     40 H40        -9.9051   -7.4159   35.8185 H         1 UNK         0.0300 
     41 H41        -9.7541   -7.4888   37.5693 H         1 UNK         0.0300 
     42 H42        -8.3125   -7.6382   36.5341 H         1 UNK         0.0300 
     43 H43        -6.4260    0.0181   39.2006 H         1 UNK         0.0300 
     44 H44        -5.3538   -1.3613   39.4089 H         1 UNK         0.0300 
     45 H45        -6.8179   -1.1985   40.4095 H         1 UNK         0.0300 
     46 H46        -8.5254   -2.4209   34.6444 H         1 UNK         0.0300 
     47 H47        -8.0327   -4.0856   34.9470 H         1 UNK         0.0300 
     48 H48        -6.9916   -2.7436   35.4520 H         1 UNK         0.0300 
@<TRIPOS>BOND
     1    1    2 ar   
     2    1    8 ar   
     3    1   26 1    
     4    2    9 ar   
     5    2   27 1    
     6    3    6 ar   
     7    3   10 ar   
     8    3   28 1    
     9    4    6 ar   
    10    4   11 ar   
    11    4   29 1    
    12    5    7 ar   
    13    5    8 ar   
    14    5   30 1    
    15    6   13 1    
    16    7    9 ar   
    17    7   14 1    
    18    8   17 1    
    19    9   21 1    
    20   10   12 ar   
    21   10   23 1    
    22   11   12 ar   
    23   11   24 1    
    24   12   25 1    
    25   13   21 am   BACKBONE|DICT|INTERRES
    26   13   22 2    
    27   14   15 1    
    28   14   31 1    
    29   14   32 1    
    30   15   16 1    
    31   15   33 1    
    32   15   34 1    
    33   16   21 1    
    34   16   35 1    
    35   16   36 1    
    36   17   37 1    
    37   17   38 1    
    38   17   39 1    
    39   18   23 1    
    40   18   40 1    
    41   18   41 1    
    42   18   42 1    
    43   19   24 1    
    44   19   43 1    
    45   19   44 1    
    46   19   45 1    
    47   20   25 1    
    48   20   46 1    
    49   20   47 1    
    50   20   48 1    
@<TRIPOS>SUBSTRUCTURE
     1 UNK         1 GROUP             0       ****    0 ROOT    
@<TRIPOS>MOLECULE
ZINC01511389_60
48   51    1
SMALL
USER_CHARGES


@<TRIPOS>ATOM
      1 C1         -3.8168  -10.4976   34.8865 C.ar      1 UNK        -0.1150 
      2 C2         -3.8810   -9.2765   35.5783 C.ar      1 UNK        -0.1150 
      3 C3         -5.3083  -12.9017   38.8652 C.ar      1 UNK        -0.1150 
      4 C4         -4.1608  -11.6902   35.5455 C.ar      1 UNK        -0.1150 
      5 C5         -4.2964   -9.2467   36.9230 C.ar      1 UNK        -0.1150 
      6 C6         -4.8997  -12.8850   37.5223 C.ar      1 UNK        -0.1150 
      7 C7         -5.4061  -11.6960   39.5805 C.ar      1 UNK        -0.1150 
      8 C8         -6.7499   -3.7441   39.6988 C.ar      1 UNK        -0.1150 
      9 C9         -7.1006   -5.6117   38.2055 C.ar      1 UNK        -0.1150 
     10 C10        -4.5768  -11.6664   36.8933 C.ar      1 UNK         0.0000 
     11 C11        -4.6644  -10.4366   37.6056 C.ar      1 UNK         0.0000 
     12 C12        -5.0991  -10.4598   38.9672 C.ar      1 UNK         0.0044 
     13 C13        -6.6896   -5.1306   39.4662 C.ar      1 UNK         0.0000 
     14 C14        -7.2138   -2.8428   38.7228 C.ar      1 UNK         0.0850 
     15 C15        -7.5791   -4.7390   37.1979 C.ar      1 UNK         0.0850 
     16 C16        -7.6698   -3.3454   37.4694 C.ar      1 UNK         0.0850 
     17 C17        -5.2823   -9.2537   39.8203 C.2       1 UNK         0.4703 
     18 C18        -5.7705   -7.2872   40.5001 C.2       1 UNK         0.1225 
     19 C19        -5.2571   -8.0401   41.6397 C.2       1 UNK         0.5100 
     20 C20        -6.1562   -5.9932   40.5453 C.2       1 UNK        -0.1150 
     21 C21        -7.1903   -0.4950   38.1293 C.3       1 UNK         0.1100 
     22 C22        -7.7518   -6.5576   35.6170 C.3       1 UNK         0.1100 
     23 C23        -9.4271   -2.8097   35.9466 C.3       1 UNK         0.1100 
     24 N24        -5.7474   -8.1444   39.4181 N.2       1 UNK        -0.5122 
     25 O25        -5.1134   -7.6611   42.8013 O.2       1 UNK        -0.4300 
     26 O26        -4.9757   -9.2344   41.1523 O.3       1 UNK        -0.1650 
     27 O27        -7.2027   -1.5177   39.1139 O.3       1 UNK        -0.2850 
     28 O28        -7.9476   -5.1883   35.9439 O.3       1 UNK        -0.2850 
     29 O29        -8.1759   -2.4721   36.5313 O.3       1 UNK        -0.2850 
     30 H30        -3.4978  -10.5210   33.8544 H         1 UNK         0.1150 
     31 H31        -3.6076   -8.3578   35.0789 H         1 UNK         0.1150 
     32 H32        -5.5519  -13.8389   39.3448 H         1 UNK         0.1150 
     33 H33        -4.1004  -12.6262   35.0093 H         1 UNK         0.1150 
     34 H34        -4.3144   -8.2830   37.4066 H         1 UNK         0.1150 
     35 H35        -4.8302  -13.8160   36.9778 H         1 UNK         0.1150 
     36 H36        -5.7352  -11.7285   40.6098 H         1 UNK         0.1150 
     37 H37        -6.4230   -3.3448   40.6476 H         1 UNK         0.1150 
     38 H38        -7.0572   -6.6681   38.0138 H         1 UNK         0.1150 
     39 H39        -6.0849   -5.5098   41.5107 H         1 UNK         0.1150 
     40 H40        -6.8641    0.4376   38.5892 H         1 UNK         0.0300 
     41 H41        -8.1879   -0.3227   37.7246 H         1 UNK         0.0300 
     42 H42        -6.4966   -0.7174   37.3172 H         1 UNK         0.0300 
     43 H43        -8.0356   -6.7215   34.5778 H         1 UNK         0.0300 
     44 H44        -8.3738   -7.2081   36.2332 H         1 UNK         0.0300 
     45 H45        -6.7058   -6.8505   35.7212 H         1 UNK         0.0300 
     46 H46        -9.9860   -1.8956   35.7471 H         1 UNK         0.0300 
     47 H47       -10.0401   -3.4341   36.5990 H         1 UNK         0.0300 
     48 H48        -9.2882   -3.3200   34.9935 H         1 UNK         0.0300 
@<TRIPOS>BOND
     1    1    2 ar   
     2    1    4 ar   
     3    1   30 1    
     4    2    5 ar   
     5    2   31 1    
     6    3    6 ar   
     7    3    7 ar   
     8    3   32 1    
     9    4   10 ar   
    10    4   33 1    
    11    5   11 ar   
    12    5   34 1    
    13    6   10 ar   
    14    6   35 1    
    15    7   12 ar   
    16    7   36 1    
    17    8   13 ar   
    18    8   14 ar   
    19    8   37 1    
    20    9   13 ar   
    21    9   15 ar   
    22    9   38 1    
    23   10   11 ar   
    24   11   12 ar   
    25   12   17 1    
    26   13   20 1    
    27   14   16 ar   
    28   14   27 1    
    29   15   16 ar   
    30   15   28 1    
    31   16   29 1    
    32   17   24 2    
    33   17   26 1    
    34   18   19 1    
    35   18   20 2    
    36   18   24 1    
    37   19   25 2    
    38   19   26 1    
    39   20   39 1    
    40   21   27 1    
    41   21   40 1    
    42   21   41 1    
    43   21   42 1    
    44   22   28 1    
    45   22   43 1    
    46   22   44 1    
    47   22   45 1    
    48   23   29 1    
    49   23   46 1    
    50   23   47 1    
    51   23   48 1    
@<TRIPOS>SUBSTRUCTURE
     1 UNK         1 GROUP             0       ****    0 ROOT    
@<TRIPOS>MOLECULE
ZINC01574350_43
44   45    1
SMALL
USER_CHARGES


@<TRIPOS>ATOM
      1 C1         -6.0038   -8.3631   41.6644 C.ar      1 UNK        -0.1150 
      2 C2         -5.7145   -9.7263   41.4868 C.ar      1 UNK        -0.1150 
      3 C3         -5.5030   -7.9754   39.3197 C.ar      1 UNK        -0.1150 
      4 C4         -7.7801   -5.9046   38.7785 C.ar      1 UNK        -0.1150 
      5 C5         -6.5804   -3.9109   39.5016 C.ar      1 UNK        -0.1150 
      6 C6         -5.9174   -7.4762   40.5751 C.ar      1 UNK        -0.1150 
      7 C7         -6.8688   -5.2826   39.6608 C.ar      1 UNK        -0.1150 
      8 C8         -5.3284  -10.2408   40.2332 C.ar      1 UNK         0.0850 
      9 C9         -5.2160   -9.3516   39.1204 C.ar      1 UNK         0.0850 
     10 C10        -8.3636   -5.1806   37.7124 C.ar      1 UNK         0.0850 
     11 C11        -7.1651   -3.1622   38.4519 C.ar      1 UNK         0.0850 
     12 C12        -8.0414   -3.8146   37.5516 C.ar      1 UNK         0.0850 
     13 C13        -6.2317   -6.0321   40.7820 C.2       1 UNK         0.7000 
     14 C14        -4.6901  -12.2755   39.0547 C.3       1 UNK         0.1100 
     15 C15        -4.7618   -8.9538   36.7755 C.3       1 UNK         0.1100 
     16 C16        -9.5857   -7.1046   36.9377 C.3       1 UNK         0.1100 
     17 C17        -6.1436   -1.1182   39.2094 C.3       1 UNK         0.1100 
     18 C18        -7.7421   -2.8176   35.4563 C.3       1 UNK         0.1100 
     19 O19        -5.9708   -5.4736   41.8473 O.2       1 UNK        -0.4700 
     20 O20        -5.0942  -11.6032   40.2364 O.3       1 UNK        -0.2850 
     21 O21        -4.8357   -9.8380   37.8851 O.3       1 UNK        -0.2850 
     22 O22        -9.2338   -5.7362   36.7972 O.3       1 UNK        -0.2850 
     23 O23        -6.9327   -1.8158   38.2573 O.3       1 UNK        -0.2850 
     24 O24        -8.6270   -3.1218   36.5222 O.3       1 UNK        -0.2850 
     25 H25        -6.2962   -8.0012   42.6408 H         1 UNK         0.1150 
     26 H26        -5.7903  -10.3980   42.3296 H         1 UNK         0.1150 
     27 H27        -5.4092   -7.2712   38.5080 H         1 UNK         0.1150 
     28 H28        -8.0218   -6.9451   38.9332 H         1 UNK         0.1150 
     29 H29        -5.9020   -3.4495   40.2040 H         1 UNK         0.1150 
     30 H30        -4.5623  -13.3349   39.2765 H         1 UNK         0.0300 
     31 H31        -3.7321  -11.9040   38.6896 H         1 UNK         0.0300 
     32 H32        -5.4445  -12.1988   38.2709 H         1 UNK         0.0300 
     33 H33        -4.4675   -9.5165   35.8896 H         1 UNK         0.0300 
     34 H34        -4.0126   -8.1767   36.9327 H         1 UNK         0.0300 
     35 H35        -5.7280   -8.4927   36.5649 H         1 UNK         0.0300 
     36 H36       -10.2728   -7.3816   36.1384 H         1 UNK         0.0300 
     37 H37       -10.0922   -7.2905   37.8859 H         1 UNK         0.0300 
     38 H38        -8.7116   -7.7526   36.8591 H         1 UNK         0.0300 
     39 H39        -6.1021   -0.0637   38.9370 H         1 UNK         0.0300 
     40 H40        -5.1195   -1.4929   39.2303 H         1 UNK         0.0300 
     41 H41        -6.5746   -1.1822   40.2096 H         1 UNK         0.0300 
     42 H42        -8.2975   -2.3374   34.6512 H         1 UNK         0.0300 
     43 H43        -7.2890   -3.7248   35.0541 H         1 UNK         0.0300 
     44 H44        -6.9469   -2.1372   35.7607 H         1 UNK         0.0300 
@<TRIPOS>BOND
     1    1    2 ar   
     2    1    6 ar   
     3    1   25 1    
     4    2    8 ar   
     5    2   26 1    
     6    3    6 ar   
     7    3    9 ar   
     8    3   27 1    
     9    4    7 ar   
    10    4   10 ar   
    11    4   28 1    
    12    5    7 ar   
    13    5   11 ar   
    14    5   29 1    
    15    6   13 1    
    16    7   13 1    
    17    8    9 ar   
    18    8   20 1    
    19    9   21 1    
    20   10   12 ar   
    21   10   22 1    
    22   11   12 ar   
    23   11   23 1    
    24   12   24 1    
    25   13   19 2    
    26   14   20 1    
    27   14   30 1    
    28   14   31 1    
    29   14   32 1    
    30   15   21 1    
    31   15   33 1    
    32   15   34 1    
    33   15   35 1    
    34   16   22 1    
    35   16   36 1    
    36   16   37 1    
    37   16   38 1    
    38   17   23 1    
    39   17   39 1    
    40   17   40 1    
    41   17   41 1    
    42   18   24 1    
    43   18   42 1    
    44   18   43 1    
    45   18   44 1    
@<TRIPOS>SUBSTRUCTURE
     1 UNK         1 GROUP             0       ****    0 ROOT    
@<TRIPOS>MOLECULE
ZINC01711296_195
43   45    1
SMALL
USER_CHARGES


@<TRIPOS>ATOM
      1 C1         -4.6871  -10.4801   39.7065 C.ar      1 UNK        -0.1150 
      2 C2         -4.6140  -11.6805   38.9625 C.ar      1 UNK        -0.1150 
      3 C3         -6.7712   -3.6179   39.5943 C.ar      1 UNK        -0.1150 
      4 C4         -7.2216   -5.3834   37.9766 C.ar      1 UNK        -0.1150 
      5 C5         -4.1719   -9.1611   37.6971 C.ar      1 UNK        -0.1150 
      6 C6         -6.5364   -4.9287   39.1272 C.ar      1 UNK        -0.1150 
      7 C7         -4.4717   -9.2252   39.0793 C.ar      1 UNK        -0.0418 
      8 C8         -4.3195  -11.5847   37.5932 C.ar      1 UNK         0.0850 
      9 C9         -4.1056  -10.3668   36.9817 C.ar      1 UNK         0.0850 
     10 C10        -7.6753   -2.7587   38.9256 C.ar      1 UNK         0.0850 
     11 C11        -8.1325   -4.5421   37.2929 C.ar      1 UNK         0.0850 
     12 C12        -8.3433   -3.2274   37.7730 C.ar      1 UNK         0.0850 
     13 C13        -5.5758   -5.7983   39.8640 C.2       1 UNK         0.6250 
     14 C14        -3.8936  -11.9482   35.4618 C.3       1 UNK         0.2000 
     15 C15        -7.3029   -0.9723   40.4936 C.3       1 UNK         0.1100 
     16 C16        -8.6837   -6.2656   35.7028 C.3       1 UNK         0.1100 
     17 C17        -8.7455   -1.8695   35.9124 C.3       1 UNK         0.1100 
     18 C18        -4.5449   -7.9479   39.8911 C.3       1 UNK         0.2318 
     19 O19        -4.9786   -5.4446   40.8818 O.2       1 UNK        -0.4300 
     20 O20        -4.1960  -12.5800   36.6795 O.3       1 UNK        -0.2850 
     21 O21        -3.8413  -10.5590   35.6648 O.3       1 UNK        -0.2850 
     22 O22        -7.9437   -1.4660   39.3271 O.3       1 UNK        -0.2850 
     23 O23        -8.8437   -4.9371   36.1776 O.3       1 UNK        -0.2850 
     24 O24        -9.2260   -2.3870   37.1423 O.3       1 UNK        -0.2850 
     25 O25        -5.4252   -7.0080   39.3011 O.3       1 UNK        -0.3300 
     26 H26        -4.9125  -10.5255   40.7622 H         1 UNK         0.1150 
     27 H27        -4.7786  -12.6414   39.4273 H         1 UNK         0.1150 
     28 H28        -6.2423   -3.2861   40.4752 H         1 UNK         0.1150 
     29 H29        -7.0448   -6.3885   37.6271 H         1 UNK         0.1150 
     30 H30        -4.0019   -8.2159   37.2031 H         1 UNK         0.1150 
     31 H31        -2.9284  -12.3010   35.0966 H         1 UNK         0.1000 
     32 H32        -4.6645  -12.1819   34.7265 H         1 UNK         0.1000 
     33 H33        -7.6320    0.0502   40.6781 H         1 UNK         0.0300 
     34 H34        -6.2188   -0.9525   40.3747 H         1 UNK         0.0300 
     35 H35        -7.5615   -1.5647   41.3723 H         1 UNK         0.0300 
     36 H36        -9.3256   -6.4154   34.8348 H         1 UNK         0.0300 
     37 H37        -8.9756   -6.9972   36.4576 H         1 UNK         0.0300 
     38 H38        -7.6566   -6.4568   35.3893 H         1 UNK         0.0300 
     39 H39        -9.4311   -1.1035   35.5505 H         1 UNK         0.0300 
     40 H40        -8.6749   -2.6402   35.1450 H         1 UNK         0.0300 
     41 H41        -7.7645   -1.4080   36.0351 H         1 UNK         0.0300 
     42 H42        -4.8777   -8.1739   40.9054 H         1 UNK         0.0300 
     43 H43        -3.5429   -7.5222   39.9648 H         1 UNK         0.0300 
@<TRIPOS>BOND
     1    1    2 ar   
     2    1    7 ar   
     3    1   26 1    
     4    2    8 ar   
     5    2   27 1    
     6    3    6 ar   
     7    3   10 ar   
     8    3   28 1    
     9    4    6 ar   
    10    4   11 ar   
    11    4   29 1    
    12    5    7 ar   
    13    5    9 ar   
    14    5   30 1    
    15    6   13 1    
    16    7   18 1    
    17    8    9 ar   
    18    8   20 1    
    19    9   21 1    
    20   10   12 ar   
    21   10   22 1    
    22   11   12 ar   
    23   11   23 1    
    24   12   24 1    
    25   13   19 2    
    26   13   25 1    
    27   14   20 1    
    28   14   21 1    
    29   14   31 1    
    30   14   32 1    
    31   15   22 1    
    32   15   33 1    
    33   15   34 1    
    34   15   35 1    
    35   16   23 1    
    36   16   36 1    
    37   16   37 1    
    38   16   38 1    
    39   17   24 1    
    40   17   39 1    
    41   17   40 1    
    42   17   41 1    
    43   18   25 1    
    44   18   42 1    
    45   18   43 1    
@<TRIPOS>SUBSTRUCTURE
     1 UNK         1 GROUP             0       ****    0 ROOT    
@<TRIPOS>MOLECULE
ZINC01961880_78
43   44    1
SMALL
USER_CHARGES


@<TRIPOS>ATOM
      1 C1         -4.2237  -10.7349   37.3422 C.ar      1 UNK        -0.1150 
      2 C2         -5.1467  -11.9113   39.2694 C.ar      1 UNK        -0.1150 
      3 C3         -4.3266   -9.5151   38.0387 C.ar      1 UNK        -0.1150 
      4 C4         -5.2496  -10.6910   39.9654 C.ar      1 UNK        -0.1150 
      5 C5         -7.7786   -5.8451   38.1013 C.ar      1 UNK        -0.1150 
      6 C6         -7.4212   -3.9935   39.6428 C.ar      1 UNK        -0.1150 
      7 C7         -7.1104   -5.3045   39.2241 C.ar      1 UNK        -0.1150 
      8 C8         -4.6353  -11.9361   37.9556 C.ar      1 UNK        -0.1150 
      9 C9         -4.8411   -9.4895   39.3512 C.ar      1 UNK        -0.0418 
     10 C10        -8.7477   -5.0902   37.3969 C.ar      1 UNK         0.0850 
     11 C11        -8.3830   -3.2188   38.9523 C.ar      1 UNK         0.0850 
     12 C12        -9.0322   -3.7701   37.8256 C.ar      1 UNK         0.0850 
     13 C13        -6.0912   -6.0846   39.9825 C.2       1 UNK         0.6250 
     14 C14        -4.5246  -13.2499   37.2098 C.3       1 UNK        -0.0650 
     15 C15        -9.2201   -6.9210   35.9024 C.3       1 UNK         0.1100 
     16 C16        -8.1045   -1.3530   40.4458 C.3       1 UNK         0.1100 
     17 C17        -9.6095   -2.6151   35.8627 C.3       1 UNK         0.1100 
     18 C18        -4.9493   -8.1744   40.0947 C.3       1 UNK         0.2318 
     19 O19        -5.5000   -5.6511   40.9727 O.2       1 UNK        -0.4300 
     20 O20        -9.4496   -5.5817   36.3145 O.3       1 UNK        -0.2850 
     21 O21        -8.7261   -1.9301   39.3077 O.3       1 UNK        -0.2850 
     22 O22        -9.9684   -2.9988   37.1809 O.3       1 UNK        -0.2850 
     23 O23        -5.8826   -7.3091   39.4736 O.3       1 UNK        -0.3300 
     24 H24        -3.8282  -10.7430   36.3366 H         1 UNK         0.1150 
     25 H25        -5.4625  -12.8275   39.7481 H         1 UNK         0.1150 
     26 H26        -4.0133   -8.5963   37.5642 H         1 UNK         0.1150 
     27 H27        -5.6458  -10.6806   40.9706 H         1 UNK         0.1150 
     28 H28        -7.5436   -6.8510   37.7907 H         1 UNK         0.1150 
     29 H29        -6.9053   -3.5956   40.5036 H         1 UNK         0.1150 
     30 H30        -3.5946  -13.7542   37.4728 H         1 UNK         0.0600 
     31 H31        -5.3564  -13.9089   37.4605 H         1 UNK         0.0600 
     32 H32        -4.5358  -13.0912   36.1312 H         1 UNK         0.0600 
     33 H33        -9.8704   -7.1529   35.0590 H         1 UNK         0.0300 
     34 H34        -9.4505   -7.6296   36.6991 H         1 UNK         0.0300 
     35 H35        -8.1903   -7.0661   35.5732 H         1 UNK         0.0300 
     36 H36        -8.4940   -0.3462   40.5945 H         1 UNK         0.0300 
     37 H37        -7.0249   -1.2720   40.3129 H         1 UNK         0.0300 
     38 H38        -8.3173   -1.9249   41.3498 H         1 UNK         0.0300 
     39 H39       -10.2423   -1.7862   35.5464 H         1 UNK         0.0300 
     40 H40        -9.7513   -3.4253   35.1483 H         1 UNK         0.0300 
     41 H41        -8.5728   -2.2788   35.8117 H         1 UNK         0.0300 
     42 H42        -5.2481   -8.3584   41.1279 H         1 UNK         0.0300 
     43 H43        -3.9660   -7.7025   40.1203 H         1 UNK         0.0300 
@<TRIPOS>BOND
     1    1    3 ar   
     2    1    8 ar   
     3    1   24 1    
     4    2    4 ar   
     5    2    8 ar   
     6    2   25 1    
     7    3    9 ar   
     8    3   26 1    
     9    4    9 ar   
    10    4   27 1    
    11    5    7 ar   
    12    5   10 ar   
    13    5   28 1    
    14    6    7 ar   
    15    6   11 ar   
    16    6   29 1    
    17    7   13 1    
    18    8   14 1    
    19    9   18 1    
    20   10   12 ar   
    21   10   20 1    
    22   11   12 ar   
    23   11   21 1    
    24   12   22 1    
    25   13   19 2    
    26   13   23 1    
    27   14   30 1    
    28   14   31 1    
    29   14   32 1    
    30   15   20 1    
    31   15   33 1    
    32   15   34 1    
    33   15   35 1    
    34   16   21 1    
    35   16   36 1    
    36   16   37 1    
    37   16   38 1    
    38   17   22 1    
    39   17   39 1    
    40   17   40 1    
    41   17   41 1    
    42   18   23 1    
    43   18   42 1    
    44   18   43 1    
@<TRIPOS>SUBSTRUCTURE
     1 UNK         1 GROUP             0       ****    0 ROOT    
@<TRIPOS>MOLECULE
ZINC02028701_269
40   41    1
SMALL
USER_CHARGES


@<TRIPOS>ATOM
      1 C1        -10.5700  -20.0690   36.8541 C.ar      1 UNK        -0.1150 
      2 C2        -11.3535  -18.9134   37.0434 C.ar      1 UNK        -0.1150 
      3 C3        -15.6055  -12.8290   36.6546 C.ar      1 UNK        -0.1150 
      4 C4        -11.0308  -21.3164   37.3157 C.ar      1 UNK        -0.1150 
      5 C5        -16.4808  -11.7661   36.9386 C.ar      1 UNK        -0.1150 
      6 C6        -13.0576  -20.2490   38.1553 C.ar      1 UNK        -0.1150 
      7 C7        -14.3191  -12.2765   38.6353 C.ar      1 UNK        -0.1150 
      8 C8        -12.6051  -18.9930   37.6960 C.ar      1 UNK         0.0044 
      9 C9        -14.5189  -13.0906   37.5053 C.ar      1 UNK        -0.1150 
     10 C10       -12.2767  -21.4050   37.9667 C.ar      1 UNK         0.1500 
     11 C11       -16.2931  -10.9369   38.0767 C.ar      1 UNK         0.0850 
     12 C12       -15.1810  -11.2016   38.9351 C.ar      1 UNK         0.0850 
     13 C13       -13.4399  -17.7915   37.9045 C.2       1 UNK         0.3451 
     14 C14       -18.2772   -9.6692   37.5246 C.3       1 UNK         0.1100 
     15 C15       -15.5133   -9.3181   40.4401 C.3       1 UNK         0.1100 
     16 C16       -13.5747  -14.2422   37.2127 C.3       1 UNK        -0.0050 
     17 C17       -14.0762  -15.5656   37.8071 C.3       1 UNK         0.1002 
     18 N18       -13.1368  -16.6245   37.5054 N.2       1 UNK        -0.6099 
     19 O19       -12.7367  -22.6061   38.4190 O.3       1 UNK        -0.5850 
     20 O20       -17.1578   -9.8996   38.3678 O.3       1 UNK        -0.2850 
     21 O21       -14.8331  -10.5089   40.0798 O.3       1 UNK        -0.2850 
     22 H22        -9.6151  -19.9954   36.3543 H         1 UNK         0.1150 
     23 H23       -10.9923  -17.9584   36.6868 H         1 UNK         0.1150 
     24 H24       -15.7742  -13.4445   35.7824 H         1 UNK         0.1150 
     25 H25       -10.4211  -22.1949   37.1643 H         1 UNK         0.1150 
     26 H26       -17.2997  -11.6117   36.2545 H         1 UNK         0.1150 
     27 H27       -14.0108  -20.3339   38.6571 H         1 UNK         0.1150 
     28 H28       -13.4851  -12.4716   39.2936 H         1 UNK         0.1150 
     29 H29       -14.3772  -17.9587   38.4447 H         1 UNK         0.0402 
     30 H30       -18.8492   -8.8264   37.9128 H         1 UNK         0.0300 
     31 H31       -18.9426  -10.5332   37.4995 H         1 UNK         0.0300 
     32 H32       -17.9680   -9.4156   36.5097 H         1 UNK         0.0300 
     33 H33       -15.4810   -8.5769   39.6406 H         1 UNK         0.0300 
     34 H34       -15.0222   -8.8786   41.3081 H         1 UNK         0.0300 
     35 H35       -16.5473   -9.5189   40.7218 H         1 UNK         0.0300 
     36 H36       -13.4529  -14.3382   36.1330 H         1 UNK         0.0600 
     37 H37       -12.5864  -14.0050   37.6097 H         1 UNK         0.0600 
     38 H38       -14.1952  -15.4531   38.8875 H         1 UNK         0.0600 
     39 H39       -15.0633  -15.7934   37.3978 H         1 UNK         0.0600 
     40 H40       -12.1488  -23.3265   38.2523 H         1 UNK         0.4350 
@<TRIPOS>BOND
     1    1    2 ar   
     2    1    4 ar   
     3    1   22 1    
     4    2    8 ar   
     5    2   23 1    
     6    3    5 ar   
     7    3    9 ar   
     8    3   24 1    
     9    4   10 ar   
    10    4   25 1    
    11    5   11 ar   
    12    5   26 1    
    13    6    8 ar   
    14    6   10 ar   
    15    6   27 1    
    16    7    9 ar   
    17    7   12 ar   
    18    7   28 1    
    19    8   13 1    
    20    9   16 1    
    21   10   19 1    
    22   11   12 ar   
    23   11   20 1    
    24   12   21 1    
    25   13   18 2    
    26   13   29 1    
    27   14   20 1    
    28   14   30 1    
    29   14   31 1    
    30   14   32 1    
    31   15   21 1    
    32   15   33 1    
    33   15   34 1    
    34   15   35 1    
    35   16   17 1    
    36   16   36 1    
    37   16   37 1    
    38   17   18 1    
    39   17   38 1    
    40   17   39 1    
    41   19   40 1    
@<TRIPOS>SUBSTRUCTURE
     1 UNK         1 GROUP             0       ****    0 ROOT    
@<TRIPOS>MOLECULE
ZINC02136272_131
45   46    1
SMALL
USER_CHARGES


@<TRIPOS>ATOM
      1 C1        -13.3867  -16.8984   35.5146 C.ar      1 UNK        -0.1150 
      2 C2        -12.2176  -16.1989   35.8709 C.ar      1 UNK        -0.1150 
      3 C3        -13.9541  -17.8254   36.4102 C.ar      1 UNK        -0.1150 
      4 C4        -11.6214  -16.4174   37.1276 C.ar      1 UNK        -0.1150 
      5 C5        -13.3603  -18.0461   37.6678 C.ar      1 UNK        -0.1150 
      6 C6        -14.3622  -13.9169   38.6343 C.ar      1 UNK        -0.1150 
      7 C7        -13.2827  -12.0082   39.6791 C.ar      1 UNK        -0.1150 
      8 C8        -13.4470  -13.4032   39.5797 C.ar      1 UNK        -0.1150 
      9 C9        -12.2014  -17.3309   38.0370 C.ar      1 UNK         0.0850 
     10 C10       -15.0738  -13.0660   37.7685 C.ar      1 UNK         0.0850 
     11 C11       -13.9873  -11.1320   38.8341 C.ar      1 UNK         0.0850 
     12 C12       -14.8563  -11.6604   37.8392 C.ar      1 UNK         0.0850 
     13 C13       -12.6783  -14.3127   40.4952 C.2       1 UNK         0.7375 
     14 C14       -11.6468  -16.5735   40.3340 C.2       1 UNK         0.5827 
     15 C15       -11.1055  -18.8737   39.5843 C.3       1 UNK        -0.1303 
     16 C16       -17.0440  -13.0049   36.3812 C.3       1 UNK         0.1100 
     17 C17       -14.8851   -8.9279   38.9788 C.3       1 UNK         0.1100 
     18 C18       -14.5523  -10.4367   35.8839 C.3       1 UNK         0.1100 
     19 N19       -12.3494  -15.4823   39.9175 N.am      1 UNK        -0.3977 
     20 N20       -11.6342  -17.5257   39.3337 N.pl3     1 UNK        -0.2572 
     21 O21       -12.3688  -13.9263   41.6201 O.2       1 UNK        -0.5000 
     22 O22       -15.9134  -13.7052   36.8802 O.3       1 UNK        -0.2850 
     23 O23       -13.7531   -9.7880   39.0154 O.3       1 UNK        -0.2850 
     24 O24       -15.4385  -10.8212   36.9244 O.3       1 UNK        -0.2850 
     25 S25       -10.9178  -16.7892   41.8338 S.2       1 UNK        -0.4762 
     26 H26       -13.8449  -16.7301   34.5500 H         1 UNK         0.1150 
     27 H27       -11.7767  -15.4971   35.1774 H         1 UNK         0.1150 
     28 H28       -14.8465  -18.3677   36.1318 H         1 UNK         0.1150 
     29 H29       -10.7192  -15.8819   37.3898 H         1 UNK         0.1150 
     30 H30       -13.8037  -18.7554   38.3526 H         1 UNK         0.1150 
     31 H31       -14.5432  -14.9795   38.5572 H         1 UNK         0.1150 
     32 H32       -12.6082  -11.5979   40.4186 H         1 UNK         0.1150 
     33 H33       -10.0486  -18.8348   39.8524 H         1 UNK         0.0600 
     34 H34       -11.1886  -19.5086   38.7015 H         1 UNK         0.0600 
     35 H35       -11.6487  -19.3621   40.3947 H         1 UNK         0.0600 
     36 H36       -16.7782  -12.3817   35.5274 H         1 UNK         0.0300 
     37 H37       -17.5193  -12.3901   37.1472 H         1 UNK         0.0300 
     38 H38       -17.7849  -13.7257   36.0359 H         1 UNK         0.0300 
     39 H39       -15.7919   -9.4183   39.3370 H         1 UNK         0.0300 
     40 H40       -15.0610   -8.5456   37.9736 H         1 UNK         0.0300 
     41 H41       -14.7010   -8.0691   39.6239 H         1 UNK         0.0300 
     42 H42       -15.0756   -9.7904   35.1794 H         1 UNK         0.0300 
     43 H43       -14.1913  -11.3079   35.3354 H         1 UNK         0.0300 
     44 H44       -13.6918   -9.8863   36.2669 H         1 UNK         0.0300 
     45 H45       -12.6900  -15.5643   38.9747 H         1 UNK         0.2912 
@<TRIPOS>BOND
     1    1    2 ar   
     2    1    3 ar   
     3    1   26 1    
     4    2    4 ar   
     5    2   27 1    
     6    3    5 ar   
     7    3   28 1    
     8    4    9 ar   
     9    4   29 1    
    10    5    9 ar   
    11    5   30 1    
    12    6    8 ar   
    13    6   10 ar   
    14    6   31 1    
    15    7    8 ar   
    16    7   11 ar   
    17    7   32 1    
    18    8   13 1    
    19    9   20 1    
    20   10   12 ar   
    21   10   22 1    
    22   11   12 ar   
    23   11   23 1    
    24   12   24 1    
    25   13   19 am   BACKBONE|DICT|INTERRES
    26   13   21 2    
    27   14   19 am   BACKBONE|DICT|INTERRES
    28   14   20 1    
    29   14   25 2    
    30   15   20 1    
    31   15   33 1    
    32   15   34 1    
    33   15   35 1    
    34   16   22 1    
    35   16   36 1    
    36   16   37 1    
    37   16   38 1    
    38   17   23 1    
    39   17   39 1    
    40   17   40 1    
    41   17   41 1    
    42   18   24 1    
    43   18   42 1    
    44   18   43 1    
    45   18   44 1    
    46   19   45 1    
@<TRIPOS>SUBSTRUCTURE
     1 UNK         1 GROUP             0       ****    0 ROOT    
@<TRIPOS>MOLECULE
ZINC02193242_194
38   41    1
SMALL
USER_CHARGES


@<TRIPOS>ATOM
      1 C1         -3.9423   -9.3862   35.5089 C.2       1 UNK        -0.0738 
      2 C2         -6.8568   -4.1072   39.4179 C.ar      1 UNK        -0.1150 
      3 C3         -7.3901   -3.3429   38.3670 C.ar      1 UNK        -0.1150 
      4 C4         -3.7619   -9.7207   36.8829 C.2       1 UNK        -0.0738 
      5 C5         -7.8389   -6.0989   38.4398 C.ar      1 UNK        -0.1150 
      6 C6         -5.2223   -9.6069   35.0735 C.2       1 UNK        -0.3255 
      7 C7         -7.0727   -5.4962   39.4598 C.ar      1 UNK         0.0000 
      8 C8         -8.1465   -3.9348   37.3360 C.ar      1 UNK         0.0850 
      9 C9         -8.3797   -5.3445   37.3651 C.ar      1 UNK         0.0850 
     10 C10        -4.9060  -10.1901   37.4773 C.2       1 UNK        -0.1787 
     11 C11        -6.4952   -6.2812   40.5548 C.ar      1 UNK         0.4100 
     12 C12        -5.5334   -7.8755   41.7541 C.ar      1 UNK         0.4175 
     13 C13        -5.3484   -9.4472   39.8395 C.2       1 UNK         0.1303 
     14 C14        -9.3762   -3.4726   35.2850 C.3       1 UNK         0.1100 
     15 C15        -9.2899   -7.3533   36.3701 C.3       1 UNK         0.1100 
     16 C16        -5.0937  -10.6119   38.9007 C.3       1 UNK         0.1100 
     17 N17        -6.3416   -5.8446   41.8185 N.2       1 UNK        -0.3633 
     18 N18        -5.7332   -6.8767   42.5766 N.2       1 UNK        -0.3633 
     19 N19        -5.9306   -8.3049   39.4512 N.2       1 UNK        -0.2500 
     20 N20        -5.9979   -7.5185   40.5420 N.pl3     1 UNK        -0.0934 
     21 O21        -8.5882   -3.0379   36.3811 O.3       1 UNK        -0.2850 
     22 O22        -9.1182   -5.9429   36.3624 O.3       1 UNK        -0.2850 
     23 S23        -6.2347  -10.2306   36.3457 S.3       1 UNK         0.0328 
     24 S24        -4.8974   -9.5018   41.5812 S.3       1 UNK        -0.0028 
     25 H25        -3.1387   -8.9975   34.8995 H         1 UNK         0.1211 
     26 H26        -6.2779   -3.6264   40.1940 H         1 UNK         0.1150 
     27 H27        -7.2156   -2.2772   38.3465 H         1 UNK         0.1150 
     28 H28        -2.8115   -9.5977   37.3823 H         1 UNK         0.1211 
     29 H29        -8.0067   -7.1607   38.5080 H         1 UNK         0.1150 
     30 H30        -5.6339   -9.4383   34.0882 H         1 UNK         0.2618 
     31 H31        -9.6247   -2.6127   34.6634 H         1 UNK         0.0300 
     32 H32       -10.3168   -3.9127   35.6175 H         1 UNK         0.0300 
     33 H33        -8.8335   -4.1794   34.6560 H         1 UNK         0.0300 
     34 H34        -9.8625   -7.6488   35.4910 H         1 UNK         0.0300 
     35 H35        -9.8464   -7.6828   37.2484 H         1 UNK         0.0300 
     36 H36        -8.3323   -7.8740   36.3280 H         1 UNK         0.0300 
     37 H37        -5.9321  -11.3045   38.9775 H         1 UNK         0.0600 
     38 H38        -4.2121  -11.1536   39.2439 H         1 UNK         0.0600 
@<TRIPOS>BOND
     1    1    4 1    
     2    1    6 2    
     3    1   25 1    
     4    2    3 ar   
     5    2    7 ar   
     6    2   26 1    
     7    3    8 ar   
     8    3   27 1    
     9    4   10 2    
    10    4   28 1    
    11    5    7 ar   
    12    5    9 ar   
    13    5   29 1    
    14    6   23 1    
    15    6   30 1    
    16    7   11 1    
    17    8    9 ar   
    18    8   21 1    
    19    9   22 1    
    20   10   16 1    
    21   10   23 1    
    22   11   17 ar   
    23   11   20 ar   
    24   12   18 ar   
    25   12   20 ar   
    26   12   24 1    
    27   13   16 1    
    28   13   19 2    
    29   13   24 1    
    30   14   21 1    
    31   14   31 1    
    32   14   32 1    
    33   14   33 1    
    34   15   22 1    
    35   15   34 1    
    36   15   35 1    
    37   15   36 1    
    38   16   37 1    
    39   16   38 1    
    40   17   18 ar   
    41   19   20 1    
@<TRIPOS>SUBSTRUCTURE
     1 UNK         1 GROUP             0       ****    0 ROOT    
@<TRIPOS>MOLECULE
ZINC02220925_50
49   52    1
SMALL
USER_CHARGES


@<TRIPOS>ATOM
      1 C1         -6.2058  -13.9379   39.0571 C.ar      1 UNK        -0.1150 
      2 C2         -6.9906  -12.5461   37.2390 C.ar      1 UNK        -0.1150 
      3 C3         -5.9829  -14.9971   38.1551 C.ar      1 UNK        -0.1150 
      4 C4         -6.7671  -13.6017   36.3346 C.ar      1 UNK        -0.1150 
      5 C5         -8.9101   -6.4042   39.2420 C.ar      1 UNK        -0.1150 
      6 C6         -9.8844   -8.4838   38.4506 C.ar      1 UNK        -0.1150 
      7 C7         -9.0293   -7.8031   39.3371 C.ar      1 UNK         0.0000 
      8 C8         -6.7138  -12.6938   38.6177 C.ar      1 UNK         0.0000 
      9 C9         -6.2617  -14.8379   36.7767 C.ar      1 UNK         0.0850 
     10 C10        -9.6235   -5.6679   38.2636 C.ar      1 UNK         0.0850 
     11 C11       -10.5998   -7.7794   37.4551 C.ar      1 UNK         0.0850 
     12 C12       -10.4599   -6.3749   37.3489 C.ar      1 UNK         0.0850 
     13 C13        -8.2700   -8.5194   40.3630 C.ar      1 UNK         0.4100 
     14 C14        -7.0636  -10.0173   41.4637 C.ar      1 UNK         0.4175 
     15 C15        -6.9518  -11.5805   39.5623 C.2       1 UNK         0.2453 
     16 C16        -4.0226  -17.0191   36.3329 C.3       1 UNK        -0.1800 
     17 C17        -8.7810   -3.5848   39.1546 C.3       1 UNK         0.1100 
     18 C18       -11.6058   -9.8042   36.6196 C.3       1 UNK         0.1100 
     19 C19       -10.7436   -4.5847   35.7474 C.3       1 UNK         0.1100 
     20 C20        -5.5496  -17.0791   36.1880 C.3       1 UNK         0.1400 
     21 N21        -8.0218   -8.0553   41.6008 N.2       1 UNK        -0.3633 
     22 N22        -7.2578   -9.0254   42.2963 N.2       1 UNK        -0.3633 
     23 N23        -7.6542  -10.4993   39.2053 N.2       1 UNK        -0.2500 
     24 N24        -7.6751   -9.7106   40.2995 N.pl3     1 UNK        -0.0934 
     25 O25        -9.5470   -4.2905   38.1882 O.3       1 UNK        -0.2850 
     26 O26       -11.4417   -8.3958   36.5503 O.3       1 UNK        -0.2850 
     27 O27       -11.2047   -5.7864   36.3445 O.3       1 UNK        -0.2850 
     28 O28        -6.0802  -15.8115   35.8173 O.3       1 UNK        -0.2850 
     29 S29        -6.3205  -11.5937   41.2460 S.3       1 UNK        -0.0028 
     30 H30        -5.9830  -14.1017   40.1006 H         1 UNK         0.1150 
     31 H31        -7.3769  -11.6115   36.8584 H         1 UNK         0.1150 
     32 H32        -5.5943  -15.9228   38.5496 H         1 UNK         0.1150 
     33 H33        -6.9856  -13.4632   35.2857 H         1 UNK         0.1150 
     34 H34        -8.2590   -5.9158   39.9507 H         1 UNK         0.1150 
     35 H35        -9.9837   -9.5521   38.5544 H         1 UNK         0.1150 
     36 H36        -3.5610  -16.6810   35.4049 H         1 UNK         0.0600 
     37 H37        -3.7135  -16.3358   37.1228 H         1 UNK         0.0600 
     38 H38        -3.6165  -18.0032   36.5670 H         1 UNK         0.0600 
     39 H39        -8.8649   -2.5147   38.9655 H         1 UNK         0.0300 
     40 H40        -7.7236   -3.8459   39.0950 H         1 UNK         0.0300 
     41 H41        -9.1453   -3.7682   40.1664 H         1 UNK         0.0300 
     42 H42       -12.2920  -10.1236   35.8353 H         1 UNK         0.0300 
     43 H43       -12.0341  -10.1089   37.5754 H         1 UNK         0.0300 
     44 H44       -10.6607  -10.3254   36.4618 H         1 UNK         0.0300 
     45 H45       -11.1922   -4.4856   34.7592 H         1 UNK         0.0300 
     46 H46        -9.6605   -4.5791   35.6168 H         1 UNK         0.0300 
     47 H47       -11.0480   -3.7138   36.3283 H         1 UNK         0.0300 
     48 H48        -6.0310  -17.4793   37.0806 H         1 UNK         0.0300 
     49 H49        -5.7972  -17.7769   35.3877 H         1 UNK         0.0300 
@<TRIPOS>BOND
     1    1    3 ar   
     2    1    8 ar   
     3    1   30 1    
     4    2    4 ar   
     5    2    8 ar   
     6    2   31 1    
     7    3    9 ar   
     8    3   32 1    
     9    4    9 ar   
    10    4   33 1    
    11    5    7 ar   
    12    5   10 ar   
    13    5   34 1    
    14    6    7 ar   
    15    6   11 ar   
    16    6   35 1    
    17    7   13 1    
    18    8   15 1    
    19    9   28 1    
    20   10   12 ar   
    21   10   25 1    
    22   11   12 ar   
    23   11   26 1    
    24   12   27 1    
    25   13   21 ar   
    26   13   24 ar   
    27   14   22 ar   
    28   14   24 ar   
    29   14   29 1    
    30   15   23 2    
    31   15   29 1    
    32   16   20 1    
    33   16   36 1    
    34   16   37 1    
    35   16   38 1    
    36   17   25 1    
    37   17   39 1    
    38   17   40 1    
    39   17   41 1    
    40   18   26 1    
    41   18   42 1    
    42   18   43 1    
    43   18   44 1    
    44   19   27 1    
    45   19   45 1    
    46   19   46 1    
    47   19   47 1    
    48   20   28 1    
    49   20   48 1    
    50   20   49 1    
    51   21   22 ar   
    52   23   24 1    
@<TRIPOS>SUBSTRUCTURE
     1 UNK         1 GROUP             0       ****    0 ROOT    
@<TRIPOS>MOLECULE
ZINC02228795_25
45   48    1
SMALL
USER_CHARGES


@<TRIPOS>ATOM
      1 C1         -4.3707   -9.7972   34.6980 C.ar      1 UNK        -0.1150 
      2 C2         -5.7243   -9.7983   35.0861 C.ar      1 UNK        -0.1150 
      3 C3         -3.3696  -10.1189   35.6347 C.ar      1 UNK        -0.1150 
      4 C4         -6.0772  -10.1234   36.4102 C.ar      1 UNK        -0.1150 
      5 C5         -3.7210  -10.4429   36.9595 C.ar      1 UNK        -0.1150 
      6 C6         -6.8841   -4.1914   39.4016 C.ar      1 UNK        -0.1150 
      7 C7         -8.0634   -6.1890   38.6638 C.ar      1 UNK        -0.1150 
      8 C8         -7.1100   -5.5793   39.5060 C.ar      1 UNK         0.0000 
      9 C9         -5.0767  -10.4478   37.3518 C.ar      1 UNK        -0.1150 
     10 C10        -7.5920   -3.4070   38.4597 C.ar      1 UNK         0.0850 
     11 C11        -8.7726   -5.4296   37.7034 C.ar      1 UNK         0.0850 
     12 C12        -8.5244   -4.0425   37.6048 C.ar      1 UNK         0.0850 
     13 C13        -6.3479   -6.3529   40.4905 C.ar      1 UNK         0.4100 
     14 C14        -5.2095   -7.9388   41.5370 C.ar      1 UNK         0.4175 
     15 C15        -5.4707   -9.5873   39.6996 C.2       1 UNK         0.1303 
     16 C16        -6.5585   -1.3753   39.2320 C.3       1 UNK         0.1100 
     17 C17        -9.9314   -7.3682   36.8738 C.3       1 UNK         0.1100 
     18 C18        -8.4630   -2.9054   35.5617 C.3       1 UNK         0.1100 
     19 C19        -5.4573  -10.7932   38.7812 C.3       1 UNK         0.1100 
     20 N20        -5.9261   -5.8781   41.6770 N.2       1 UNK        -0.3633 
     21 N21        -5.2064   -6.9038   42.3385 N.2       1 UNK        -0.3633 
     22 N22        -6.0863   -8.4401   39.3854 N.2       1 UNK        -0.2500 
     23 N23        -5.9029   -7.6094   40.4303 N.pl3     1 UNK        -0.0934 
     24 O24        -7.4291   -2.0424   38.3303 O.3       1 UNK        -0.2850 
     25 O25        -9.7014   -5.9680   36.8359 O.3       1 UNK        -0.2850 
     26 O26        -9.2323   -3.3165   36.6803 O.3       1 UNK        -0.2850 
     27 S27        -4.6698   -9.5927   41.3112 S.3       1 UNK        -0.0028 
     28 H28        -4.1001   -9.5464   33.6823 H         1 UNK         0.1150 
     29 H29        -6.4918   -9.5468   34.3680 H         1 UNK         0.1150 
     30 H30        -2.3310  -10.1145   35.3363 H         1 UNK         0.1150 
     31 H31        -7.1178  -10.1145   36.7012 H         1 UNK         0.1150 
     32 H32        -2.9444  -10.6832   37.6715 H         1 UNK         0.1150 
     33 H33        -6.1575   -3.7483   40.0657 H         1 UNK         0.1150 
     34 H34        -8.2445   -7.2455   38.7722 H         1 UNK         0.1150 
     35 H35        -6.5745   -0.3060   39.0212 H         1 UNK         0.0300 
     36 H36        -5.5291   -1.7176   39.1190 H         1 UNK         0.0300 
     37 H37        -6.8748   -1.5110   40.2672 H         1 UNK         0.0300 
     38 H38       -10.6689   -7.6310   36.1156 H         1 UNK         0.0300 
     39 H39       -10.3278   -7.6809   37.8405 H         1 UNK         0.0300 
     40 H40        -9.0209   -7.9285   36.6561 H         1 UNK         0.0300 
     41 H41        -9.1168   -2.4345   34.8280 H         1 UNK         0.0300 
     42 H42        -7.9823   -3.7591   35.0813 H         1 UNK         0.0300 
     43 H43        -7.6953   -2.1808   35.8334 H         1 UNK         0.0300 
     44 H44        -6.4440  -11.2569   38.7968 H         1 UNK         0.0600 
     45 H45        -4.7605  -11.5353   39.1719 H         1 UNK         0.0600 
@<TRIPOS>BOND
     1    1    2 ar   
     2    1    3 ar   
     3    1   28 1    
     4    2    4 ar   
     5    2   29 1    
     6    3    5 ar   
     7    3   30 1    
     8    4    9 ar   
     9    4   31 1    
    10    5    9 ar   
    11    5   32 1    
    12    6    8 ar   
    13    6   10 ar   
    14    6   33 1    
    15    7    8 ar   
    16    7   11 ar   
    17    7   34 1    
    18    8   13 1    
    19    9   19 1    
    20   10   12 ar   
    21   10   24 1    
    22   11   12 ar   
    23   11   25 1    
    24   12   26 1    
    25   13   20 ar   
    26   13   23 ar   
    27   14   21 ar   
    28   14   23 ar   
    29   14   27 1    
    30   15   19 1    
    31   15   22 2    
    32   15   27 1    
    33   16   24 1    
    34   16   35 1    
    35   16   36 1    
    36   16   37 1    
    37   17   25 1    
    38   17   38 1    
    39   17   39 1    
    40   17   40 1    
    41   18   26 1    
    42   18   41 1    
    43   18   42 1    
    44   18   43 1    
    45   19   44 1    
    46   19   45 1    
    47   20   21 ar   
    48   22   23 1    
@<TRIPOS>SUBSTRUCTURE
     1 UNK         1 GROUP             0       ****    0 ROOT    
@<TRIPOS>MOLECULE
ZINC02231482_82
46   49    1
SMALL
USER_CHARGES


@<TRIPOS>ATOM
      1 C1         -6.0178  -13.3711   35.7757 C.ar      1 UNK        -0.1150 
      2 C2         -3.6578  -13.2031   36.3521 C.ar      1 UNK        -0.1150 
      3 C3         -5.7021  -14.3121   34.7755 C.ar      1 UNK        -0.1150 
      4 C4         -3.3434  -14.1437   35.3523 C.ar      1 UNK        -0.1150 
      5 C5         -7.9157   -5.0694   39.2985 C.ar      1 UNK        -0.1150 
      6 C6         -9.3000   -6.9207   38.5497 C.ar      1 UNK        -0.1150 
      7 C7         -8.2361   -6.4385   39.3335 C.ar      1 UNK         0.0000 
      8 C8         -4.9918  -12.8057   36.5751 C.ar      1 UNK         0.0850 
      9 C9         -8.6336   -4.1660   38.4761 C.ar      1 UNK         0.0850 
     10 C10       -10.0324   -6.0454   37.7148 C.ar      1 UNK         0.0850 
     11 C11        -9.6921   -4.6722   37.6637 C.ar      1 UNK         0.0850 
     12 C12        -4.3664  -14.6982   34.5632 C.ar      1 UNK         0.2200 
     13 C13        -7.4600   -7.3342   40.1891 C.ar      1 UNK         0.4100 
     14 C14        -6.3090   -9.0527   40.9753 C.ar      1 UNK         0.4175 
     15 C15        -6.5719  -10.3978   38.9095 C.2       1 UNK         0.2035 
     16 C16        -7.3078   -2.3119   39.2832 C.3       1 UNK         0.1100 
     17 C17       -11.4551   -7.8298   36.9401 C.3       1 UNK         0.1100 
     18 C18        -9.9195   -2.7421   36.2227 C.3       1 UNK         0.1100 
     19 C19        -6.5322  -11.4339   37.8090 C.3       1 UNK         0.1818 
     20 N20        -7.0282   -7.0365   41.4271 N.2       1 UNK        -0.3633 
     21 N21        -6.3022   -8.1483   41.9225 N.2       1 UNK        -0.3633 
     22 N22        -7.1991   -9.2223   38.7751 N.2       1 UNK        -0.2500 
     23 N23        -7.0126   -8.5635   39.9361 N.pl3     1 UNK        -0.0934 
     24 O24        -8.3505   -2.8139   38.4587 O.3       1 UNK        -0.2850 
     25 O25       -11.0795   -6.4613   36.9163 O.3       1 UNK        -0.2850 
     26 O26       -10.4704   -3.9080   36.8149 O.3       1 UNK        -0.2850 
     27 O27        -5.2042  -11.8794   37.5714 O.3       1 UNK        -0.2850 
     28 F28        -4.0674  -15.6018   33.6018 F         1 UNK        -0.2200 
     29 S29        -5.7691  -10.6513   40.5001 S.3       1 UNK        -0.0028 
     30 H30        -7.0546  -13.1025   35.9055 H         1 UNK         0.1150 
     31 H31        -2.8667  -12.7802   36.9541 H         1 UNK         0.1150 
     32 H32        -6.4831  -14.7416   34.1658 H         1 UNK         0.1150 
     33 H33        -2.3186  -14.4416   35.1878 H         1 UNK         0.1150 
     34 H34        -7.1046   -4.7378   39.9285 H         1 UNK         0.1150 
     35 H35        -9.5413   -7.9699   38.6082 H         1 UNK         0.1150 
     36 H36        -7.2287   -1.2339   39.1436 H         1 UNK         0.0300 
     37 H37        -6.3437   -2.7477   39.0178 H         1 UNK         0.0300 
     38 H38        -7.5104   -2.4919   40.3399 H         1 UNK         0.0300 
     39 H39       -12.2877   -7.9844   36.2538 H         1 UNK         0.0300 
     40 H40       -11.7865   -8.1348   37.9336 H         1 UNK         0.0300 
     41 H41       -10.6373   -8.4743   36.6153 H         1 UNK         0.0300 
     42 H42       -10.4829   -2.5028   35.3212 H         1 UNK         0.0300 
     43 H43        -8.8779   -2.8821   35.9294 H         1 UNK         0.0300 
     44 H44       -10.0012   -1.8842   36.8905 H         1 UNK         0.0300 
     45 H45        -6.9515  -10.9966   36.9013 H         1 UNK         0.0300 
     46 H46        -7.1647  -12.2710   38.1074 H         1 UNK         0.0300 
@<TRIPOS>BOND
     1    1    3 ar   
     2    1    8 ar   
     3    1   30 1    
     4    2    4 ar   
     5    2    8 ar   
     6    2   31 1    
     7    3   12 ar   
     8    3   32 1    
     9    4   12 ar   
    10    4   33 1    
    11    5    7 ar   
    12    5    9 ar   
    13    5   34 1    
    14    6    7 ar   
    15    6   10 ar   
    16    6   35 1    
    17    7   13 1    
    18    8   27 1    
    19    9   11 ar   
    20    9   24 1    
    21   10   11 ar   
    22   10   25 1    
    23   11   26 1    
    24   12   28 1    
    25   13   20 ar   
    26   13   23 ar   
    27   14   21 ar   
    28   14   23 ar   
    29   14   29 1    
    30   15   19 1    
    31   15   22 2    
    32   15   29 1    
    33   16   24 1    
    34   16   36 1    
    35   16   37 1    
    36   16   38 1    
    37   17   25 1    
    38   17   39 1    
    39   17   40 1    
    40   17   41 1    
    41   18   26 1    
    42   18   42 1    
    43   18   43 1    
    44   18   44 1    
    45   19   27 1    
    46   19   45 1    
    47   19   46 1    
    48   20   21 ar   
    49   22   23 1    
@<TRIPOS>SUBSTRUCTURE
     1 UNK         1 GROUP             0       ****    0 ROOT    
@<TRIPOS>MOLECULE
ZINC02234059_2
45   48    1
SMALL
USER_CHARGES


@<TRIPOS>ATOM
      1 C1         -5.0658  -12.7372   38.2332 C.ar      1 UNK        -0.1150 
      2 C2         -4.6974  -12.5579   36.8896 C.ar      1 UNK        -0.1150 
      3 C3         -5.1731  -11.6221   39.0846 C.ar      1 UNK        -0.1150 
      4 C4         -4.4336  -11.2648   36.4051 C.ar      1 UNK        -0.1150 
      5 C5         -6.7742   -3.9182   39.3964 C.ar      1 UNK        -0.1150 
      6 C6         -7.8699   -5.9387   38.5912 C.ar      1 UNK        -0.1150 
      7 C7         -6.9584   -5.3138   39.4674 C.ar      1 UNK         0.0000 
      8 C8         -4.9175  -10.3128   38.6167 C.ar      1 UNK         0.0000 
      9 C9         -4.5362  -10.1433   37.2567 C.ar      1 UNK        -0.1150 
     10 C10        -7.4811   -3.1391   38.4494 C.ar      1 UNK         0.0850 
     11 C11        -8.5826   -5.1829   37.6306 C.ar      1 UNK         0.0850 
     12 C12        -8.3740   -3.7872   37.5621 C.ar      1 UNK         0.0850 
     13 C13        -6.1981   -6.0842   40.4533 C.ar      1 UNK         0.4100 
     14 C14        -5.0152   -7.6523   41.4811 C.ar      1 UNK         0.4175 
     15 C15        -5.0577   -9.1870   39.5614 C.2       1 UNK         0.2453 
     16 C16        -4.2155   -8.7726   36.6822 C.3       1 UNK        -0.0650 
     17 C17        -6.5172   -1.0928   39.2718 C.3       1 UNK         0.1100 
     18 C18        -9.7128   -7.1307   36.7828 C.3       1 UNK         0.1100 
     19 C19        -8.3016   -2.6188   35.5375 C.3       1 UNK         0.1100 
     20 N20        -5.8715   -5.6489   41.6834 N.2       1 UNK        -0.3633 
     21 N21        -5.1242   -6.6634   42.3325 N.2       1 UNK        -0.3633 
     22 N22        -5.7357   -8.0778   39.2493 N.2       1 UNK        -0.2500 
     23 N23        -5.6666   -7.3023   40.3506 N.pl3     1 UNK        -0.0934 
     24 O24        -7.3543   -1.7686   38.3451 O.3       1 UNK        -0.2850 
     25 O25        -9.4760   -5.7320   36.7335 O.3       1 UNK        -0.2850 
     26 O26        -9.0821   -3.0662   36.6340 O.3       1 UNK        -0.2850 
     27 S27        -4.3557   -9.2583   41.2120 S.3       1 UNK        -0.0028 
     28 H28        -5.2694  -13.7292   38.6101 H         1 UNK         0.1150 
     29 H29        -4.6152  -13.4110   36.2313 H         1 UNK         0.1150 
     30 H30        -5.4663  -11.7790   40.1125 H         1 UNK         0.1150 
     31 H31        -4.1469  -11.1392   35.3707 H         1 UNK         0.1150 
     32 H32        -6.0799   -3.4666   40.0888 H         1 UNK         0.1150 
     33 H33        -8.0144   -7.0037   38.6747 H         1 UNK         0.1150 
     34 H34        -5.1318   -8.2028   36.5246 H         1 UNK         0.0600 
     35 H35        -3.5673   -8.2094   37.3540 H         1 UNK         0.0600 
     36 H36        -3.7026   -8.8527   35.7235 H         1 UNK         0.0600 
     37 H37        -6.5520   -0.0220   39.0718 H         1 UNK         0.0300 
     38 H38        -5.4784   -1.4114   39.1771 H         1 UNK         0.0300 
     39 H39        -6.8520   -1.2466   40.2987 H         1 UNK         0.0300 
     40 H40       -10.4419   -7.3979   36.0181 H         1 UNK         0.0300 
     41 H41       -10.1227   -7.4320   37.7477 H         1 UNK         0.0300 
     42 H42        -8.8024   -7.6972   36.5822 H         1 UNK         0.0300 
     43 H43        -8.9539   -2.1672   34.7904 H         1 UNK         0.0300 
     44 H44        -7.7776   -3.4503   35.0634 H         1 UNK         0.0300 
     45 H45        -7.5687   -1.8685   35.8341 H         1 UNK         0.0300 
@<TRIPOS>BOND
     1    1    2 ar   
     2    1    3 ar   
     3    1   28 1    
     4    2    4 ar   
     5    2   29 1    
     6    3    8 ar   
     7    3   30 1    
     8    4    9 ar   
     9    4   31 1    
    10    5    7 ar   
    11    5   10 ar   
    12    5   32 1    
    13    6    7 ar   
    14    6   11 ar   
    15    6   33 1    
    16    7   13 1    
    17    8    9 ar   
    18    8   15 1    
    19    9   16 1    
    20   10   12 ar   
    21   10   24 1    
    22   11   12 ar   
    23   11   25 1    
    24   12   26 1    
    25   13   20 ar   
    26   13   23 ar   
    27   14   21 ar   
    28   14   23 ar   
    29   14   27 1    
    30   15   22 2    
    31   15   27 1    
    32   16   34 1    
    33   16   35 1    
    34   16   36 1    
    35   17   24 1    
    36   17   37 1    
    37   17   38 1    
    38   17   39 1    
    39   18   25 1    
    40   18   40 1    
    41   18   41 1    
    42   18   42 1    
    43   19   26 1    
    44   19   43 1    
    45   19   44 1    
    46   19   45 1    
    47   20   21 ar   
    48   22   23 1    
@<TRIPOS>SUBSTRUCTURE
     1 UNK         1 GROUP             0       ****    0 ROOT    
@<TRIPOS>MOLECULE
ZINC02237600_114
49   52    1
SMALL
USER_CHARGES


@<TRIPOS>ATOM
      1 C1         -5.4069  -13.2565   38.5611 C.ar      1 UNK        -0.1150 
      2 C2         -4.9546  -13.0814   37.2435 C.ar      1 UNK        -0.1150 
      3 C3         -5.5985  -12.1343   39.3862 C.ar      1 UNK        -0.1150 
      4 C4         -4.6917  -11.7882   36.7576 C.ar      1 UNK        -0.1150 
      5 C5         -7.2956   -4.4219   39.3913 C.ar      1 UNK        -0.1150 
      6 C6         -8.2831   -6.4642   38.5248 C.ar      1 UNK        -0.1150 
      7 C7         -7.4631   -5.8174   39.4684 C.ar      1 UNK         0.0000 
      8 C8         -5.3449  -10.8270   38.9130 C.ar      1 UNK         0.0000 
      9 C9         -4.8781  -10.6493   37.5832 C.ar      1 UNK         0.0850 
     10 C10        -7.9237   -3.6581   38.3764 C.ar      1 UNK         0.0850 
     11 C11        -8.9115   -5.7322   37.4910 C.ar      1 UNK         0.0850 
     12 C12        -8.7195   -4.3329   37.4041 C.ar      1 UNK         0.0850 
     13 C13        -6.7866   -6.5623   40.5329 C.ar      1 UNK         0.4100 
     14 C14        -5.6908   -8.1002   41.6948 C.ar      1 UNK         0.4175 
     15 C15        -5.5713   -9.6831   39.8174 C.2       1 UNK         0.2453 
     16 C16        -2.6343   -9.3492   35.7493 C.3       1 UNK        -0.1800 
     17 C17        -7.0872   -1.6051   39.3389 C.3       1 UNK         0.1100 
     18 C18        -9.9233   -7.7195   36.5786 C.3       1 UNK         0.1100 
     19 C19        -8.8018   -2.5493   35.7784 C.3       1 UNK         0.1100 
     20 C20        -4.1463   -9.1058   35.8481 C.3       1 UNK         0.1400 
     21 N21        -6.5649   -6.0960   41.7755 N.2       1 UNK        -0.3633 
     22 N22        -5.8723   -7.0911   42.5096 N.2       1 UNK        -0.3633 
     23 N23        -6.2283   -8.5864   39.4253 N.2       1 UNK        -0.2500 
     24 N24        -6.2492   -7.7819   40.5069 N.pl3     1 UNK        -0.0934 
     25 O25        -7.8053   -2.2828   38.3173 O.3       1 UNK        -0.2850 
     26 O26        -9.7142   -6.3161   36.5307 O.3       1 UNK        -0.2850 
     27 O27        -9.3747   -3.7111   36.3586 O.3       1 UNK        -0.2850 
     28 O28        -4.6180   -9.3575   37.1668 O.3       1 UNK        -0.2850 
     29 S29        -5.0071   -9.7097   41.5212 S.3       1 UNK        -0.0028 
     30 H30        -5.6092  -14.2491   38.9377 H         1 UNK         0.1150 
     31 H31        -4.8062  -13.9395   36.6035 H         1 UNK         0.1150 
     32 H32        -5.9549  -12.2821   40.3952 H         1 UNK         0.1150 
     33 H33        -4.3389  -11.7014   35.7422 H         1 UNK         0.1150 
     34 H34        -6.6742   -3.9573   40.1414 H         1 UNK         0.1150 
     35 H35        -8.4220   -7.5293   38.6121 H         1 UNK         0.1150 
     36 H36        -2.0958   -8.7157   36.4544 H         1 UNK         0.0600 
     37 H37        -2.3708  -10.3834   35.9677 H         1 UNK         0.0600 
     38 H38        -2.2694   -9.1175   34.7487 H         1 UNK         0.0600 
     39 H39        -7.1418   -0.5310   39.1623 H         1 UNK         0.0300 
     40 H40        -6.0329   -1.8850   39.3379 H         1 UNK         0.0300 
     41 H41        -7.5140   -1.7966   40.3245 H         1 UNK         0.0300 
     42 H42       -10.5733   -8.0138   35.7546 H         1 UNK         0.0300 
     43 H43       -10.4135   -8.0176   37.5063 H         1 UNK         0.0300 
     44 H44        -8.9860   -8.2675   36.4703 H         1 UNK         0.0300 
     45 H45        -9.1696   -2.4438   34.7581 H         1 UNK         0.0300 
     46 H46        -7.7132   -2.6069   35.7290 H         1 UNK         0.0300 
     47 H47        -9.0973   -1.6519   36.3216 H         1 UNK         0.0300 
     48 H48        -4.7048   -9.6645   35.0968 H         1 UNK         0.0300 
     49 H49        -4.3448   -8.0555   35.6328 H         1 UNK         0.0300 
@<TRIPOS>BOND
     1    1    2 ar   
     2    1    3 ar   
     3    1   30 1    
     4    2    4 ar   
     5    2   31 1    
     6    3    8 ar   
     7    3   32 1    
     8    4    9 ar   
     9    4   33 1    
    10    5    7 ar   
    11    5   10 ar   
    12    5   34 1    
    13    6    7 ar   
    14    6   11 ar   
    15    6   35 1    
    16    7   13 1    
    17    8    9 ar   
    18    8   15 1    
    19    9   28 1    
    20   10   12 ar   
    21   10   25 1    
    22   11   12 ar   
    23   11   26 1    
    24   12   27 1    
    25   13   21 ar   
    26   13   24 ar   
    27   14   22 ar   
    28   14   24 ar   
    29   14   29 1    
    30   15   23 2    
    31   15   29 1    
    32   16   20 1    
    33   16   36 1    
    34   16   37 1    
    35   16   38 1    
    36   17   25 1    
    37   17   39 1    
    38   17   40 1    
    39   17   41 1    
    40   18   26 1    
    41   18   42 1    
    42   18   43 1    
    43   18   44 1    
    44   19   27 1    
    45   19   45 1    
    46   19   46 1    
    47   19   47 1    
    48   20   28 1    
    49   20   48 1    
    50   20   49 1    
    51   21   22 ar   
    52   23   24 1    
@<TRIPOS>SUBSTRUCTURE
     1 UNK         1 GROUP             0       ****    0 ROOT    
@<TRIPOS>MOLECULE
ZINC02310328_122
42   43    1
SMALL
USER_CHARGES


@<TRIPOS>ATOM
      1 C1         -7.2036  -12.0699   35.2737 C.ar      1 UNK        -0.1150 
      2 C2         -7.3044  -11.3521   36.4818 C.ar      1 UNK        -0.1150 
      3 C3         -6.6086  -13.3455   35.2574 C.ar      1 UNK        -0.1150 
      4 C4         -9.7745   -8.1042   38.5089 C.ar      1 UNK        -0.1150 
      5 C5         -8.8869   -5.9877   39.3023 C.ar      1 UNK        -0.1150 
      6 C6         -6.2175  -13.1857   37.6596 C.ar      1 UNK        -0.1150 
      7 C7         -8.9754   -7.3887   39.4244 C.ar      1 UNK        -0.1150 
      8 C8         -6.8074  -11.9043   37.6865 C.ar      1 UNK         0.2000 
      9 C9        -10.4419   -7.4393   37.4549 C.ar      1 UNK         0.0850 
     10 C10        -9.5584   -5.2903   38.2671 C.ar      1 UNK         0.0850 
     11 C11       -10.3220   -6.0359   37.3206 C.ar      1 UNK         0.0850 
     12 C12        -6.1164  -13.9033   36.4518 C.ar      1 UNK         0.1800 
     13 C13        -7.7295   -9.4491   40.3351 C.2       1 UNK        -0.1150 
     14 C14        -7.3604   -9.9458   39.1382 C.2       1 UNK        -0.0970 
     15 C15        -8.2340   -8.0699   40.5287 C.2       1 UNK         0.5850 
     16 C16       -11.3679   -9.5031   36.6204 C.3       1 UNK         0.1100 
     17 C17        -8.8131   -3.1673   39.1525 C.3       1 UNK         0.1100 
     18 C18       -10.5362   -4.2917   35.6587 C.3       1 UNK         0.1100 
     19 N19        -6.8914  -11.2330   38.9157 N.pl3     1 UNK        -0.5717 
     20 O20        -8.0149   -7.4869   41.5892 O.2       1 UNK        -0.4700 
     21 O21       -11.2145   -8.0956   36.5170 O.3       1 UNK        -0.2850 
     22 O22        -9.5090   -3.9135   38.1638 O.3       1 UNK        -0.2850 
     23 O23       -11.0126   -5.4875   36.2563 O.3       1 UNK        -0.2850 
     24 Cl24       -5.3904  -15.4678   36.4369 Cl        1 UNK        -0.1800 
     25 H25        -7.5849  -11.6404   34.3585 H         1 UNK         0.1150 
     26 H26        -7.7745  -10.3810   36.4586 H         1 UNK         0.1150 
     27 H27        -6.5305  -13.8977   34.3319 H         1 UNK         0.1150 
     28 H28        -9.8698   -9.1717   38.6307 H         1 UNK         0.1150 
     29 H29        -8.2884   -5.4623   40.0312 H         1 UNK         0.1150 
     30 H30        -5.8323  -13.6312   38.5644 H         1 UNK         0.1150 
     31 H31        -7.6527  -10.0556   41.2247 H         1 UNK         0.1150 
     32 H32        -7.4000   -9.3299   38.2516 H         1 UNK         0.1150 
     33 H33       -12.0051   -9.8540   35.8088 H         1 UNK         0.0300 
     34 H34       -11.8470   -9.7842   37.5591 H         1 UNK         0.0300 
     35 H35       -10.4101  -10.0177   36.5323 H         1 UNK         0.0300 
     36 H36        -8.9089   -2.1043   38.9316 H         1 UNK         0.0300 
     37 H37        -7.7488   -3.4060   39.1576 H         1 UNK         0.0300 
     38 H38        -9.2293   -3.3340   40.1471 H         1 UNK         0.0300 
     39 H39       -10.9220   -4.2256   34.6416 H         1 UNK         0.0300 
     40 H40        -9.4470   -4.2675   35.5973 H         1 UNK         0.0300 
     41 H41       -10.8936   -3.4131   36.1963 H         1 UNK         0.0300 
     42 H42        -6.6307  -11.7791   39.7260 H         1 UNK         0.3537 
@<TRIPOS>BOND
     1    1    2 ar   
     2    1    3 ar   
     3    1   25 1    
     4    2    8 ar   
     5    2   26 1    
     6    3   12 ar   
     7    3   27 1    
     8    4    7 ar   
     9    4    9 ar   
    10    4   28 1    
    11    5    7 ar   
    12    5   10 ar   
    13    5   29 1    
    14    6    8 ar   
    15    6   12 ar   
    16    6   30 1    
    17    7   15 1    
    18    8   19 1    
    19    9   11 ar   
    20    9   21 1    
    21   10   11 ar   
    22   10   22 1    
    23   11   23 1    
    24   12   24 1    
    25   13   14 2    
    26   13   15 1    
    27   13   31 1    
    28   14   19 1    
    29   14   32 1    
    30   15   20 2    
    31   16   21 1    
    32   16   33 1    
    33   16   34 1    
    34   16   35 1    
    35   17   22 1    
    36   17   36 1    
    37   17   37 1    
    38   17   38 1    
    39   18   23 1    
    40   18   39 1    
    41   18   40 1    
    42   18   41 1    
    43   19   42 1    
@<TRIPOS>SUBSTRUCTURE
     1 UNK         1 GROUP             0       ****    0 ROOT    
@<TRIPOS>MOLECULE
ZINC02328736_5
42   45    1
SMALL
USER_CHARGES


@<TRIPOS>ATOM
      1 C1         -4.7492  -12.7187   38.2420 C.ar      1 UNK        -0.1150 
      2 C2         -4.5004  -12.4549   36.8834 C.ar      1 UNK        -0.1150 
      3 C3         -4.9480  -11.6526   39.1406 C.ar      1 UNK        -0.1150 
      4 C4         -4.4498  -11.1241   36.4311 C.ar      1 UNK        -0.1150 
      5 C5         -6.7643   -3.8975   39.5275 C.ar      1 UNK        -0.1150 
      6 C6         -7.7640   -5.8773   38.5211 C.ar      1 UNK        -0.1150 
      7 C7         -6.9493   -5.2951   39.5150 C.ar      1 UNK         0.0000 
      8 C8         -4.9042  -10.3079   38.7023 C.ar      1 UNK         0.0000 
      9 C9         -7.3753   -3.0766   38.5503 C.ar      1 UNK         0.0850 
     10 C10        -8.3801   -5.0780   37.5286 C.ar      1 UNK         0.0850 
     11 C11        -8.1719   -3.6788   37.5512 C.ar      1 UNK         0.0850 
     12 C12        -4.6486  -10.0588   37.3305 C.ar      1 UNK         0.2200 
     13 C13        -6.2927   -6.1097   40.5401 C.ar      1 UNK         0.4100 
     14 C14        -5.2334   -7.7261   41.6264 C.ar      1 UNK         0.4175 
     15 C15        -5.1193   -9.2095   39.6654 C.2       1 UNK         0.2453 
     16 C16        -6.4791   -1.0693   39.5248 C.3       1 UNK         0.1100 
     17 C17        -9.3996   -6.9892   36.4791 C.3       1 UNK         0.1100 
     18 C18        -8.1045   -2.8930   35.3567 C.3       1 UNK         0.1100 
     19 N19        -6.0789   -5.7177   41.8094 N.2       1 UNK        -0.3633 
     20 N20        -5.4093   -6.7618   42.4941 N.2       1 UNK        -0.3633 
     21 N21        -5.7477   -8.0788   39.3265 N.2       1 UNK        -0.2500 
     22 N22        -5.7712   -7.3340   40.4511 N.pl3     1 UNK        -0.0934 
     23 O23        -7.2310   -1.7050   38.5021 O.3       1 UNK        -0.2850 
     24 O24        -9.1879   -5.5865   36.5314 O.3       1 UNK        -0.2850 
     25 O25        -8.7668   -2.8782   36.6101 O.3       1 UNK        -0.2850 
     26 F26        -4.5766   -8.7916   36.8583 F         1 UNK        -0.2200 
     27 S27        -4.5727   -9.3337   41.3723 S.3       1 UNK        -0.0028 
     28 H28        -4.7895  -13.7395   38.5958 H         1 UNK         0.1150 
     29 H29        -4.3473  -13.2693   36.1896 H         1 UNK         0.1150 
     30 H30        -5.1453  -11.8790   40.1783 H         1 UNK         0.1150 
     31 H31        -4.2549  -10.9120   35.3900 H         1 UNK         0.1150 
     32 H32        -6.1425   -3.4769   40.3032 H         1 UNK         0.1150 
     33 H33        -7.9141   -6.9441   38.5415 H         1 UNK         0.1150 
     34 H34        -6.4899    0.0082   39.3612 H         1 UNK         0.0300 
     35 H35        -5.4377   -1.3935   39.5136 H         1 UNK         0.0300 
     36 H36        -6.9069   -1.2565   40.5108 H         1 UNK         0.0300 
     37 H37       -10.0431   -7.2225   35.6309 H         1 UNK         0.0300 
     38 H38        -9.8981   -7.3507   37.3794 H         1 UNK         0.0300 
     39 H39        -8.4624   -7.5302   36.3406 H         1 UNK         0.0300 
     40 H40        -8.5911   -2.1908   34.6801 H         1 UNK         0.0300 
     41 H41        -8.1351   -3.8792   34.8925 H         1 UNK         0.0300 
     42 H42        -7.0619   -2.5890   35.4612 H         1 UNK         0.0300 
@<TRIPOS>BOND
     1    1    2 ar   
     2    1    3 ar   
     3    1   28 1    
     4    2    4 ar   
     5    2   29 1    
     6    3    8 ar   
     7    3   30 1    
     8    4   12 ar   
     9    4   31 1    
    10    5    7 ar   
    11    5    9 ar   
    12    5   32 1    
    13    6    7 ar   
    14    6   10 ar   
    15    6   33 1    
    16    7   13 1    
    17    8   12 ar   
    18    8   15 1    
    19    9   11 ar   
    20    9   23 1    
    21   10   11 ar   
    22   10   24 1    
    23   11   25 1    
    24   12   26 1    
    25   13   19 ar   
    26   13   22 ar   
    27   14   20 ar   
    28   14   22 ar   
    29   14   27 1    
    30   15   21 2    
    31   15   27 1    
    32   16   23 1    
    33   16   34 1    
    34   16   35 1    
    35   16   36 1    
    36   17   24 1    
    37   17   37 1    
    38   17   38 1    
    39   17   39 1    
    40   18   25 1    
    41   18   40 1    
    42   18   41 1    
    43   18   42 1    
    44   19   20 ar   
    45   21   22 1    
@<TRIPOS>SUBSTRUCTURE
     1 UNK         1 GROUP             0       ****    0 ROOT    
@<TRIPOS>MOLECULE
ZINC02340442_158
58   60    1
SMALL
USER_CHARGES


@<TRIPOS>ATOM
      1 C1        -12.3293  -21.8169   41.9420 C.ar      1 UNK        -0.1150 
      2 C2        -12.7280  -20.7412   42.7583 C.ar      1 UNK        -0.1150 
      3 C3        -12.5904  -21.7867   40.5588 C.ar      1 UNK        -0.1150 
      4 C4        -13.3905  -19.6334   42.1954 C.ar      1 UNK        -0.1150 
      5 C5        -16.0901  -17.2101   38.3313 C.ar      1 UNK        -0.1150 
      6 C6        -15.7615  -15.2530   39.7315 C.ar      1 UNK        -0.1150 
      7 C7        -15.6121  -16.6382   39.5303 C.ar      1 UNK        -0.1150 
      8 C8        -13.2521  -20.6786   39.9850 C.ar      1 UNK         0.2100 
      9 C9        -13.6576  -19.6022   40.8066 C.ar      1 UNK         0.0850 
     10 C10       -16.6702  -16.4191   37.3224 C.ar      1 UNK         0.0850 
     11 C11       -16.3469  -14.4371   38.7465 C.ar      1 UNK         0.0850 
     12 C12       -16.7634  -15.0098   37.5123 C.ar      1 UNK         0.0850 
     13 C13       -14.9930  -17.4883   40.6012 C.2       1 UNK         0.6150 
     14 C14       -14.5584  -21.5819   38.2010 C.3       1 UNK         0.1267 
     15 C15       -12.3448  -20.6719   37.7605 C.3       1 UNK         0.1267 
     16 C16       -14.9370  -21.3901   36.7148 C.3       1 UNK         0.0588 
     17 C17       -12.7334  -20.4124   36.2940 C.3       1 UNK         0.0588 
     18 C18       -18.0845  -16.5557   35.3715 C.3       1 UNK         0.1100 
     19 C19       -17.6942  -12.4751   38.7318 C.3       1 UNK         0.1100 
     20 C20       -16.1515  -13.5257   35.8265 C.3       1 UNK         0.1100 
     21 C21       -14.3543  -23.4681   34.1247 C.3       1 UNK        -0.5305 
     22 N22       -13.5343  -20.6220   38.6078 N.pl3     1 UNK        -0.6300 
     23 N23       -13.7363  -21.4017   35.8512 N.pl3     1 UNK        -0.5376 
     24 N24       -14.3063  -18.5383   40.1349 N.am      1 UNK        -0.3850 
     25 O25       -15.0787  -17.1690   41.7852 O.2       1 UNK        -0.5000 
     26 O26       -13.1934  -23.8467   36.5090 O.2       1 UNK        -0.4680 
     27 O27       -11.8658  -22.7138   34.6505 O.2       1 UNK        -0.4680 
     28 O28       -17.0725  -17.1116   36.1982 O.3       1 UNK        -0.2850 
     29 O29       -16.4544  -13.0974   39.0435 O.3       1 UNK        -0.2850 
     30 O30       -17.2057  -14.1984   36.4988 O.3       1 UNK        -0.2850 
     31 S31       -13.1323  -22.9391   35.3571 S.o2      1 UNK         0.9349 
     32 H32       -11.8227  -22.6667   42.3764 H         1 UNK         0.1150 
     33 H33       -12.5258  -20.7629   43.8197 H         1 UNK         0.1150 
     34 H34       -12.2838  -22.6199   39.9432 H         1 UNK         0.1150 
     35 H35       -13.6793  -18.8208   42.8447 H         1 UNK         0.1150 
     36 H36       -16.0238  -18.2759   38.1676 H         1 UNK         0.1150 
     37 H37       -15.4286  -14.8071   40.6587 H         1 UNK         0.1150 
     38 H38       -15.4463  -21.4543   38.8224 H         1 UNK         0.0600 
     39 H39       -14.2063  -22.5986   38.3784 H         1 UNK         0.0600 
     40 H40       -11.8532  -21.6426   37.8476 H         1 UNK         0.0600 
     41 H41       -11.6240  -19.9218   38.0904 H         1 UNK         0.0600 
     42 H42       -15.6326  -22.1680   36.4013 H         1 UNK         0.0733 
     43 H43       -15.4542  -20.4387   36.5849 H         1 UNK         0.0733 
     44 H44       -13.1488  -19.4097   36.1877 H         1 UNK         0.0733 
     45 H45       -11.8535  -20.4480   35.6508 H         1 UNK         0.0733 
     46 H46       -17.6704  -15.8234   34.6786 H         1 UNK         0.0300 
     47 H47       -18.8854  -16.0971   35.9536 H         1 UNK         0.0300 
     48 H48       -18.5305  -17.3496   34.7727 H         1 UNK         0.0300 
     49 H49       -17.6781  -12.0351   37.7352 H         1 UNK         0.0300 
     50 H50       -17.8751  -11.6664   39.4395 H         1 UNK         0.0300 
     51 H51       -18.5359  -13.1663   38.8011 H         1 UNK         0.0300 
     52 H52       -16.5617  -12.9243   35.0155 H         1 UNK         0.0300 
     53 H53       -15.4471  -14.2373   35.3932 H         1 UNK         0.0300 
     54 H54       -15.6035  -12.8585   36.4929 H         1 UNK         0.0300 
     55 H55       -14.0044  -24.3989   33.6840 H         1 UNK         0.1950 
     56 H56       -15.3145  -23.6274   34.6055 H         1 UNK         0.1950 
     57 H57       -14.4276  -22.7012   33.3575 H         1 UNK         0.1950 
     58 H58       -14.3031  -18.6658   39.1331 H         1 UNK         0.3000 
@<TRIPOS>BOND
     1    1    2 ar   
     2    1    3 ar   
     3    1   32 1    
     4    2    4 ar   
     5    2   33 1    
     6    3    8 ar   
     7    3   34 1    
     8    4    9 ar   
     9    4   35 1    
    10    5    7 ar   
    11    5   10 ar   
    12    5   36 1    
    13    6    7 ar   
    14    6   11 ar   
    15    6   37 1    
    16    7   13 1    
    17    8    9 ar   
    18    8   22 1    
    19    9   24 1    
    20   10   12 ar   
    21   10   28 1    
    22   11   12 ar   
    23   11   29 1    
    24   12   30 1    
    25   13   24 am   BACKBONE|DICT|INTERRES
    26   13   25 2    
    27   14   16 1    
    28   14   22 1    
    29   14   38 1    
    30   14   39 1    
    31   15   17 1    
    32   15   22 1    
    33   15   40 1    
    34   15   41 1    
    35   16   23 1    
    36   16   42 1    
    37   16   43 1    
    38   17   23 1    
    39   17   44 1    
    40   17   45 1    
    41   18   28 1    
    42   18   46 1    
    43   18   47 1    
    44   18   48 1    
    45   19   29 1    
    46   19   49 1    
    47   19   50 1    
    48   19   51 1    
    49   20   30 1    
    50   20   52 1    
    51   20   53 1    
    52   20   54 1    
    53   21   31 1    
    54   21   55 1    
    55   21   56 1    
    56   21   57 1    
    57   23   31 1    
    58   24   58 1    
    59   26   31 2    
    60   27   31 2    
@<TRIPOS>SUBSTRUCTURE
     1 UNK         1 GROUP             0       ****    0 ROOT    
@<TRIPOS>MOLECULE
ZINC02347059_111
51   53    1
SMALL
USER_CHARGES


@<TRIPOS>ATOM
      1 C1         -9.5697  -21.1472   37.1766 C.ar      1 UNK        -0.0888 
      2 C2        -10.6725  -22.0215   37.1638 C.ar      1 UNK        -0.3541 
      3 C3        -11.0566  -19.2829   37.7134 C.ar      1 UNK        -0.2243 
      4 C4        -16.2404  -14.0673   38.3384 C.ar      1 UNK        -0.1150 
      5 C5        -14.1349  -12.9172   37.9369 C.ar      1 UNK        -0.1150 
      6 C6        -14.1817  -21.1771   37.7752 C.ar      1 UNK        -0.1072 
      7 C7        -12.1836  -20.1368   37.7039 C.ar      1 UNK         0.1233 
      8 C8        -14.8602  -14.1187   38.0481 C.ar      1 UNK        -0.1150 
      9 C9         -9.7608  -19.7774   37.4501 C.ar      1 UNK        -0.1883 
     10 C10       -13.5936  -19.9454   37.9148 C.ar      1 UNK        -0.1749 
     11 C11       -11.9571  -21.5149   37.4249 C.ar      1 UNK         0.2860 
     12 C12       -16.9029  -12.8226   38.4706 C.ar      1 UNK         0.0850 
     13 C13       -14.7615  -11.6668   38.0866 C.ar      1 UNK         0.0850 
     14 C14       -16.1640  -11.6230   38.3231 C.ar      1 UNK         0.0850 
     15 C15       -14.1446  -15.4282   37.9020 C.2       1 UNK         0.6150 
     16 C16        -8.5729  -18.8375   37.4686 C.3       1 UNK        -0.0650 
     17 C17       -19.0101  -13.8832   38.9596 C.3       1 UNK         0.1100 
     18 C18       -14.2763   -9.3794   38.6551 C.3       1 UNK         0.1100 
     19 C19       -17.5124  -10.0794   37.2145 C.3       1 UNK         0.1100 
     20 C20       -14.2730  -18.6479   38.2229 C.3       1 UNK        -0.0641 
     21 C21       -14.3045  -17.7228   36.9942 C.3       1 UNK         0.0800 
     22 N22       -13.2006  -22.1109   37.4807 N.pl3     1 UNK        -0.4786 
     23 N23       -14.8449  -16.4072   37.3150 N.am      1 UNK        -0.5000 
     24 O24       -12.9709  -15.5542   38.2438 O.2       1 UNK        -0.5000 
     25 O25       -18.2522  -12.7039   38.7374 O.3       1 UNK        -0.2850 
     26 O26       -13.9378  -10.5683   37.9564 O.3       1 UNK        -0.2850 
     27 O27       -16.8312  -10.4275   38.4092 O.3       1 UNK        -0.2850 
     28 H28        -8.5779  -21.5289   36.9783 H         1 UNK         0.1359 
     29 H29       -10.5282  -23.0700   36.9552 H         1 UNK         0.1796 
     30 H30       -11.2046  -18.2341   37.9289 H         1 UNK         0.1699 
     31 H31       -16.7776  -14.9941   38.4625 H         1 UNK         0.1150 
     32 H32       -13.0720  -12.9526   37.7421 H         1 UNK         0.1150 
     33 H33       -15.2213  -21.4626   37.8619 H         1 UNK         0.1929 
     34 H34        -8.8851  -17.8046   37.3109 H         1 UNK         0.0600 
     35 H35        -8.0610  -18.8967   38.4296 H         1 UNK         0.0600 
     36 H36        -7.8624  -19.0961   36.6830 H         1 UNK         0.0600 
     37 H37       -20.0406  -13.6089   39.1847 H         1 UNK         0.0300 
     38 H38       -18.6271  -14.4498   39.8095 H         1 UNK         0.0300 
     39 H39       -19.0252  -14.5202   38.0745 H         1 UNK         0.0300 
     40 H40       -14.9926   -8.7808   38.0928 H         1 UNK         0.0300 
     41 H41       -13.3792   -8.7740   38.7823 H         1 UNK         0.0300 
     42 H42       -14.6749   -9.5860   39.6497 H         1 UNK         0.0300 
     43 H43       -17.9734   -9.0988   37.3306 H         1 UNK         0.0300 
     44 H44       -18.3010  -10.7925   36.9728 H         1 UNK         0.0300 
     45 H45       -16.8213  -10.0263   36.3720 H         1 UNK         0.0300 
     46 H46       -13.7433  -18.1569   39.0409 H         1 UNK         0.0600 
     47 H47       -15.2867  -18.8238   38.5835 H         1 UNK         0.0600 
     48 H48       -13.3000  -17.6059   36.5821 H         1 UNK         0.0600 
     49 H49       -14.9073  -18.1717   36.2043 H         1 UNK         0.0600 
     50 H50       -13.3860  -23.0918   37.3351 H         1 UNK         0.3577 
     51 H51       -15.7786  -16.1891   37.0084 H         1 UNK         0.3000 
@<TRIPOS>BOND
     1    1    2 ar   
     2    1    9 ar   
     3    1   28 1    
     4    2   11 ar   
     5    2   29 1    
     6    3    7 ar   
     7    3    9 ar   
     8    3   30 1    
     9    4    8 ar   
    10    4   12 ar   
    11    4   31 1    
    12    5    8 ar   
    13    5   13 ar   
    14    5   32 1    
    15    6   10 ar   
    16    6   22 ar   
    17    6   33 1    
    18    7   10 ar   
    19    7   11 ar   
    20    8   15 1    
    21    9   16 1    
    22   10   20 1    
    23   11   22 ar   
    24   12   14 ar   
    25   12   25 1    
    26   13   14 ar   
    27   13   26 1    
    28   14   27 1    
    29   15   23 am   BACKBONE|DICT|INTERRES
    30   15   24 2    
    31   16   34 1    
    32   16   35 1    
    33   16   36 1    
    34   17   25 1    
    35   17   37 1    
    36   17   38 1    
    37   17   39 1    
    38   18   26 1    
    39   18   40 1    
    40   18   41 1    
    41   18   42 1    
    42   19   27 1    
    43   19   43 1    
    44   19   44 1    
    45   19   45 1    
    46   20   21 1    
    47   20   46 1    
    48   20   47 1    
    49   21   23 1    
    50   21   48 1    
    51   21   49 1    
    52   22   50 1    
    53   23   51 1    
@<TRIPOS>SUBSTRUCTURE
     1 UNK         1 GROUP             0       ****    0 ROOT    
@<TRIPOS>MOLECULE
ZINC02351764_27
48   51    1
SMALL
USER_CHARGES


@<TRIPOS>ATOM
      1 C1         -6.7043   -3.9972   39.6886 C.ar      1 UNK        -0.1150 
      2 C2         -7.3569   -5.8561   38.2699 C.ar      1 UNK        -0.1150 
      3 C3         -6.8118   -5.3840   39.4801 C.ar      1 UNK         0.0000 
      4 C4         -7.1218   -3.0813   38.6955 C.ar      1 UNK         0.0850 
      5 C5         -7.7788   -4.9648   37.2523 C.ar      1 UNK         0.0850 
      6 C6         -7.6464   -3.5608   37.4715 C.ar      1 UNK         0.0850 
      7 C7         -6.3588   -6.3019   40.5286 C.ar      1 UNK         0.4100 
      8 C8         -5.4864   -8.0159   41.6262 C.ar      1 UNK         0.4175 
      9 C9         -4.8928   -9.2626   39.5597 C.2       1 UNK         0.1303 
     10 C10        -5.0086   -9.5591   35.6771 C.3       1 UNK        -0.1200 
     11 C11        -6.1228  -10.0472   36.6176 C.3       1 UNK        -0.1200 
     12 C12        -3.9027   -8.8215   36.4494 C.3       1 UNK        -0.1200 
     13 C13        -5.5593  -10.9383   37.7388 C.3       1 UNK        -0.1200 
     14 C14        -3.3230   -9.6934   37.5800 C.3       1 UNK        -0.1200 
     15 C15        -4.4117  -10.2604   38.5164 C.3       1 UNK         0.0550 
     16 C16        -6.5264   -1.1899   40.0639 C.3       1 UNK         0.1100 
     17 C17        -8.3165   -6.8117   35.7882 C.3       1 UNK         0.1100 
     18 C18        -8.0323   -2.8635   35.1828 C.3       1 UNK         0.1100 
     19 N19        -6.4364   -6.0589   41.8497 N.2       1 UNK        -0.3633 
     20 N20        -5.8828   -7.1662   42.5401 N.2       1 UNK        -0.3633 
     21 N21        -5.4853   -8.1020   39.2520 N.2       1 UNK        -0.2500 
     22 N22        -5.7789   -7.4979   40.4187 N.pl3     1 UNK        -0.0934 
     23 O23        -7.0340   -1.7112   38.8450 O.3       1 UNK        -0.2850 
     24 O24        -8.3400   -5.4207   36.0750 O.3       1 UNK        -0.2850 
     25 O25        -8.0196   -2.5789   36.5726 O.3       1 UNK        -0.2850 
     26 S26        -4.7172   -9.5635   41.3267 S.3       1 UNK        -0.0028 
     27 H27        -6.2931   -3.6591   40.6277 H         1 UNK         0.1150 
     28 H28        -7.4623   -6.9215   38.1496 H         1 UNK         0.1150 
     29 H29        -4.5789  -10.4095   35.1453 H         1 UNK         0.0600 
     30 H30        -5.4278   -8.9019   34.9140 H         1 UNK         0.0600 
     31 H31        -6.6419   -9.1925   37.0505 H         1 UNK         0.0600 
     32 H32        -6.8718  -10.5985   36.0481 H         1 UNK         0.0600 
     33 H33        -3.1056   -8.5304   35.7642 H         1 UNK         0.0600 
     34 H34        -4.2994   -7.8912   36.8571 H         1 UNK         0.0600 
     35 H35        -6.3522  -11.2490   38.4204 H         1 UNK         0.0600 
     36 H36        -5.1780  -11.8531   37.2830 H         1 UNK         0.0600 
     37 H37        -2.7897  -10.5274   37.1222 H         1 UNK         0.0600 
     38 H38        -2.5786   -9.1372   38.1516 H         1 UNK         0.0600 
     39 H39        -3.9319  -11.0462   39.1013 H         1 UNK         0.0600 
     40 H40        -6.5334   -0.1011   40.0178 H         1 UNK         0.0300 
     41 H41        -5.4963   -1.5051   40.2346 H         1 UNK         0.0300 
     42 H42        -7.1433   -1.4873   40.9130 H         1 UNK         0.0300 
     43 H43        -8.7167   -6.9775   34.7881 H         1 UNK         0.0300 
     44 H44        -8.9358   -7.3762   36.4862 H         1 UNK         0.0300 
     45 H45        -7.2986   -7.2028   35.8028 H         1 UNK         0.0300 
     46 H46        -7.9823   -1.9260   34.6297 H         1 UNK         0.0300 
     47 H47        -8.9571   -3.3610   34.8899 H         1 UNK         0.0300 
     48 H48        -7.1763   -3.4675   34.8791 H         1 UNK         0.0300 
@<TRIPOS>BOND
     1    1    3 ar   
     2    1    4 ar   
     3    1   27 1    
     4    2    3 ar   
     5    2    5 ar   
     6    2   28 1    
     7    3    7 1    
     8    4    6 ar   
     9    4   23 1    
    10    5    6 ar   
    11    5   24 1    
    12    6   25 1    
    13    7   19 ar   
    14    7   22 ar   
    15    8   20 ar   
    16    8   22 ar   
    17    8   26 1    
    18    9   15 1    
    19    9   21 2    
    20    9   26 1    
    21   10   11 1    
    22   10   12 1    
    23   10   29 1    
    24   10   30 1    
    25   11   13 1    
    26   11   31 1    
    27   11   32 1    
    28   12   14 1    
    29   12   33 1    
    30   12   34 1    
    31   13   15 1    
    32   13   35 1    
    33   13   36 1    
    34   14   15 1    
    35   14   37 1    
    36   14   38 1    
    37   15   39 1    
    38   16   23 1    
    39   16   40 1    
    40   16   41 1    
    41   16   42 1    
    42   17   24 1    
    43   17   43 1    
    44   17   44 1    
    45   17   45 1    
    46   18   25 1    
    47   18   46 1    
    48   18   47 1    
    49   18   48 1    
    50   19   20 ar   
    51   21   22 1    
@<TRIPOS>SUBSTRUCTURE
     1 UNK         1 GROUP             0       ****    0 ROOT    
@<TRIPOS>MOLECULE
ZINC02382410_6
42   45    1
SMALL
USER_CHARGES


@<TRIPOS>ATOM
      1 C1         -5.3056  -12.7104   38.2162 C.ar      1 UNK        -0.1150 
      2 C2         -4.6964  -12.5662   36.9569 C.ar      1 UNK        -0.1150 
      3 C3         -5.4083  -11.6010   39.0772 C.ar      1 UNK        -0.1150 
      4 C4         -4.1891  -11.3131   36.5669 C.ar      1 UNK        -0.1150 
      5 C5         -6.7380   -3.8846   39.4860 C.ar      1 UNK        -0.1150 
      6 C6         -7.7292   -5.8893   38.5215 C.ar      1 UNK        -0.1150 
      7 C7         -6.8879   -5.2869   39.4816 C.ar      1 UNK         0.0000 
      8 C8         -4.9103  -10.3344   38.6968 C.ar      1 UNK         0.0000 
      9 C9         -7.4142   -3.0785   38.5400 C.ar      1 UNK         0.0850 
     10 C10        -8.4069   -5.1049   37.5577 C.ar      1 UNK         0.0850 
     11 C11        -8.2398   -3.7015   37.5782 C.ar      1 UNK         0.0850 
     12 C12        -4.2916  -10.2022   37.4279 C.ar      1 UNK         0.1800 
     13 C13        -6.1678   -6.0804   40.4819 C.ar      1 UNK         0.4100 
     14 C14        -5.0441   -7.6703   41.5448 C.ar      1 UNK         0.4175 
     15 C15        -5.0492   -9.2028   39.6277 C.2       1 UNK         0.2453 
     16 C16        -6.5477   -1.0468   39.4907 C.3       1 UNK         0.1100 
     17 C17        -9.3946   -7.0395   36.5215 C.3       1 UNK         0.1100 
     18 C18        -8.2237   -2.8135   35.4285 C.3       1 UNK         0.1100 
     19 N19        -5.8777   -5.6576   41.7261 N.2       1 UNK        -0.3633 
     20 N20        -5.1668   -6.6834   42.3956 N.2       1 UNK        -0.3633 
     21 N21        -5.6978   -8.0839   39.2902 N.2       1 UNK        -0.2500 
     22 N22        -5.6517   -7.3076   40.3930 N.pl3     1 UNK        -0.0934 
     23 O23        -7.3089   -1.7036   38.4883 O.3       1 UNK        -0.2850 
     24 O24        -9.2349   -5.6306   36.5865 O.3       1 UNK        -0.2850 
     25 O25        -8.9045   -2.9239   36.6660 O.3       1 UNK        -0.2850 
     26 S26        -4.4034   -9.2876   41.2979 S.3       1 UNK        -0.0028 
     27 Cl27       -3.6224   -8.6963   36.9055 Cl        1 UNK        -0.1800 
     28 H28        -5.6955  -13.6715   38.5216 H         1 UNK         0.1150 
     29 H29        -4.6149  -13.4144   36.2921 H         1 UNK         0.1150 
     30 H30        -5.8831  -11.7235   40.0403 H         1 UNK         0.1150 
     31 H31        -3.7136  -11.2013   35.6032 H         1 UNK         0.1150 
     32 H32        -6.0922   -3.4474   40.2323 H         1 UNK         0.1150 
     33 H33        -7.8537   -6.9592   38.5439 H         1 UNK         0.1150 
     34 H34        -6.5996    0.0302   39.3320 H         1 UNK         0.0300 
     35 H35        -5.4968   -1.3355   39.4471 H         1 UNK         0.0300 
     36 H36        -6.9388   -1.2518   40.4884 H         1 UNK         0.0300 
     37 H37       -10.0578   -7.2871   35.6928 H         1 UNK         0.0300 
     38 H38        -9.8466   -7.4314   37.4335 H         1 UNK         0.0300 
     39 H39        -8.4429   -7.5418   36.3425 H         1 UNK         0.0300 
     40 H40        -8.7900   -2.1679   34.7576 H         1 UNK         0.0300 
     41 H41        -8.1114   -3.7849   34.9452 H         1 UNK         0.0300 
     42 H42        -7.2346   -2.3733   35.5634 H         1 UNK         0.0300 
@<TRIPOS>BOND
     1    1    2 ar   
     2    1    3 ar   
     3    1   28 1    
     4    2    4 ar   
     5    2   29 1    
     6    3    8 ar   
     7    3   30 1    
     8    4   12 ar   
     9    4   31 1    
    10    5    7 ar   
    11    5    9 ar   
    12    5   32 1    
    13    6    7 ar   
    14    6   10 ar   
    15    6   33 1    
    16    7   13 1    
    17    8   12 ar   
    18    8   15 1    
    19    9   11 ar   
    20    9   23 1    
    21   10   11 ar   
    22   10   24 1    
    23   11   25 1    
    24   12   27 1    
    25   13   19 ar   
    26   13   22 ar   
    27   14   20 ar   
    28   14   22 ar   
    29   14   26 1    
    30   15   21 2    
    31   15   26 1    
    32   16   23 1    
    33   16   34 1    
    34   16   35 1    
    35   16   36 1    
    36   17   24 1    
    37   17   37 1    
    38   17   38 1    
    39   17   39 1    
    40   18   25 1    
    41   18   40 1    
    42   18   41 1    
    43   18   42 1    
    44   19   20 ar   
    45   21   22 1    
@<TRIPOS>SUBSTRUCTURE
     1 UNK         1 GROUP             0       ****    0 ROOT    
@<TRIPOS>MOLECULE
ZINC02382939_81
46   49    1
SMALL
USER_CHARGES


@<TRIPOS>ATOM
      1 C1         -4.3973  -14.7881   34.6072 C.ar      1 UNK        -0.1150 
      2 C2         -5.7308  -14.3913   34.8196 C.ar      1 UNK        -0.1150 
      3 C3         -3.3671  -14.2163   35.3761 C.ar      1 UNK        -0.1150 
      4 C4         -6.0356  -13.4245   35.7982 C.ar      1 UNK        -0.1150 
      5 C5         -3.6725  -13.2502   36.3542 C.ar      1 UNK        -0.1150 
      6 C6         -9.2792   -6.9253   38.5118 C.ar      1 UNK        -0.1150 
      7 C7         -7.9249   -5.0658   39.2924 C.ar      1 UNK        -0.1150 
      8 C8         -8.2271   -6.4397   39.3092 C.ar      1 UNK         0.0000 
      9 C9         -5.0033  -12.8430   36.5771 C.ar      1 UNK         0.0850 
     10 C10       -10.0167   -6.0493   37.6820 C.ar      1 UNK         0.0850 
     11 C11        -8.6485   -4.1611   38.4763 C.ar      1 UNK         0.0850 
     12 C12        -9.6947   -4.6709   37.6496 C.ar      1 UNK         0.0850 
     13 C13        -7.4457   -7.3346   40.1621 C.ar      1 UNK         0.4100 
     14 C14        -6.2908   -9.0504   40.9496 C.ar      1 UNK         0.4175 
     15 C15        -6.5652  -10.4057   38.8920 C.2       1 UNK         0.2035 
     16 C16       -11.4207   -7.8404   36.8877 C.3       1 UNK         0.1100 
     17 C17        -7.3568   -2.3010   39.3245 C.3       1 UNK         0.1100 
     18 C18        -9.9646   -2.7028   36.2624 C.3       1 UNK         0.1100 
     19 C19        -6.5330  -11.4497   37.7989 C.3       1 UNK         0.1818 
     20 N20        -7.0074   -7.0327   41.3971 N.2       1 UNK        -0.3633 
     21 N21        -6.2787   -8.1424   41.8932 N.2       1 UNK        -0.3633 
     22 N22        -7.1919   -9.2301   38.7548 N.2       1 UNK        -0.2500 
     23 N23        -6.9994   -8.5653   39.9117 N.pl3     1 UNK        -0.0934 
     24 O24       -11.0537   -6.4693   36.8723 O.3       1 UNK        -0.2850 
     25 O25        -8.3814   -2.8055   38.4794 O.3       1 UNK        -0.2850 
     26 O26       -10.4786   -3.9099   36.8024 O.3       1 UNK        -0.2850 
     27 O27        -5.2060  -11.8926   37.5531 O.3       1 UNK        -0.2850 
     28 S28        -5.7535  -10.6512   40.4792 S.3       1 UNK        -0.0028 
     29 H29        -4.1649  -15.5292   33.8556 H         1 UNK         0.1150 
     30 H30        -6.5226  -14.8294   34.2292 H         1 UNK         0.1150 
     31 H31        -2.3418  -14.5169   35.2166 H         1 UNK         0.1150 
     32 H32        -7.0703  -13.1479   35.9283 H         1 UNK         0.1150 
     33 H33        -2.8768  -12.8141   36.9407 H         1 UNK         0.1150 
     34 H34        -9.5088   -7.9776   38.5557 H         1 UNK         0.1150 
     35 H35        -7.1231   -4.7311   39.9327 H         1 UNK         0.1150 
     36 H36       -12.2546   -7.9955   36.2034 H         1 UNK         0.0300 
     37 H37       -11.7466   -8.1551   37.8801 H         1 UNK         0.0300 
     38 H38       -10.5998   -8.4772   36.5551 H         1 UNK         0.0300 
     39 H39        -7.2886   -1.2207   39.1979 H         1 UNK         0.0300 
     40 H40        -6.3835   -2.7223   39.0691 H         1 UNK         0.0300 
     41 H41        -7.5736   -2.4950   40.3758 H         1 UNK         0.0300 
     42 H42       -10.5367   -2.4415   35.3725 H         1 UNK         0.0300 
     43 H43        -8.9203   -2.7996   35.9624 H         1 UNK         0.0300 
     44 H44       -10.0707   -1.8776   36.9666 H         1 UNK         0.0300 
     45 H45        -6.9629  -11.0228   36.8909 H         1 UNK         0.0300 
     46 H46        -7.1594  -12.2863   38.1115 H         1 UNK         0.0300 
@<TRIPOS>BOND
     1    1    2 ar   
     2    1    3 ar   
     3    1   29 1    
     4    2    4 ar   
     5    2   30 1    
     6    3    5 ar   
     7    3   31 1    
     8    4    9 ar   
     9    4   32 1    
    10    5    9 ar   
    11    5   33 1    
    12    6    8 ar   
    13    6   10 ar   
    14    6   34 1    
    15    7    8 ar   
    16    7   11 ar   
    17    7   35 1    
    18    8   13 1    
    19    9   27 1    
    20   10   12 ar   
    21   10   24 1    
    22   11   12 ar   
    23   11   25 1    
    24   12   26 1    
    25   13   20 ar   
    26   13   23 ar   
    27   14   21 ar   
    28   14   23 ar   
    29   14   28 1    
    30   15   19 1    
    31   15   22 2    
    32   15   28 1    
    33   16   24 1    
    34   16   36 1    
    35   16   37 1    
    36   16   38 1    
    37   17   25 1    
    38   17   39 1    
    39   17   40 1    
    40   17   41 1    
    41   18   26 1    
    42   18   42 1    
    43   18   43 1    
    44   18   44 1    
    45   19   27 1    
    46   19   45 1    
    47   19   46 1    
    48   20   21 ar   
    49   22   23 1    
@<TRIPOS>SUBSTRUCTURE
     1 UNK         1 GROUP             0       ****    0 ROOT    
@<TRIPOS>MOLECULE
ZINC02388591_176
42   45    1
SMALL
USER_CHARGES


@<TRIPOS>ATOM
      1 C1         -3.8899   -9.5569   35.3869 C.2       1 UNK        -0.0738 
      2 C2         -3.7193   -9.9175   36.7557 C.2       1 UNK        -0.0738 
      3 C3         -7.0850   -4.1840   39.3944 C.ar      1 UNK        -0.1150 
      4 C4         -8.0724   -6.2599   38.5944 C.ar      1 UNK        -0.1150 
      5 C5         -5.2003   -9.5932   34.9886 C.2       1 UNK        -0.3255 
      6 C6         -7.2162   -5.5843   39.4887 C.ar      1 UNK         0.0000 
      7 C7         -7.7878   -3.4512   38.4078 C.ar      1 UNK         0.0850 
      8 C8         -8.7756   -5.5526   37.5912 C.ar      1 UNK         0.0850 
      9 C9         -8.6199   -4.1515   37.5001 C.ar      1 UNK         0.0850 
     10 C10        -4.9008  -10.2245   37.3827 C.2       1 UNK        -0.1787 
     11 C11        -6.4565   -6.3050   40.5139 C.ar      1 UNK         0.4100 
     12 C12        -5.2607   -7.8116   41.6121 C.ar      1 UNK         0.4175 
     13 C13        -5.2738   -9.4436   39.7401 C.2       1 UNK         0.1303 
     14 C14        -6.9457   -1.3533   39.2361 C.3       1 UNK         0.1100 
     15 C15        -9.7469   -7.5686   36.7074 C.3       1 UNK         0.1100 
     16 C16        -8.5114   -2.9519   35.4889 C.3       1 UNK         0.1100 
     17 C17        -5.1061  -10.6283   38.8083 C.3       1 UNK         0.1100 
     18 N18        -6.1472   -5.8157   41.7288 N.2       1 UNK        -0.3633 
     19 N19        -5.3897   -6.7921   42.4234 N.2       1 UNK        -0.3633 
     20 N20        -5.9576   -8.3424   39.4036 N.2       1 UNK        -0.2500 
     21 N21        -5.9079   -7.5197   40.4682 N.pl3     1 UNK        -0.0934 
     22 O22        -7.7133   -2.0781   38.2862 O.3       1 UNK        -0.2850 
     23 O23        -9.6100   -6.1561   36.6721 O.3       1 UNK        -0.2850 
     24 O24        -9.3204   -3.4854   36.5252 O.3       1 UNK        -0.2850 
     25 S25        -6.2538  -10.0731   36.2894 S.3       1 UNK         0.0328 
     26 S26        -4.5784   -9.4145   41.4000 S.3       1 UNK        -0.0028 
     27 H27        -3.0575   -9.2846   34.7535 H         1 UNK         0.1211 
     28 H28        -2.7466   -9.9338   37.2263 H         1 UNK         0.1211 
     29 H29        -6.4332   -3.6921   40.1003 H         1 UNK         0.1150 
     30 H30        -8.1814   -7.3274   38.6938 H         1 UNK         0.1150 
     31 H31        -5.6132   -9.3654   34.0158 H         1 UNK         0.2618 
     32 H32        -7.0188   -0.2879   39.0185 H         1 UNK         0.0300 
     33 H33        -5.8908   -1.6265   39.1887 H         1 UNK         0.0300 
     34 H34        -7.3155   -1.5079   40.2507 H         1 UNK         0.0300 
     35 H35       -10.4126   -7.8845   35.9044 H         1 UNK         0.0300 
     36 H36       -10.1853   -7.9027   37.6487 H         1 UNK         0.0300 
     37 H37        -8.7886   -8.0673   36.5558 H         1 UNK         0.0300 
     38 H38        -9.1449   -2.6697   34.6481 H         1 UNK         0.0300 
     39 H39        -7.7898   -3.6870   35.1284 H         1 UNK         0.0300 
     40 H40        -7.9729   -2.0602   35.8086 H         1 UNK         0.0300 
     41 H41        -5.9907  -11.2599   38.8932 H         1 UNK         0.0600 
     42 H42        -4.2624  -11.2295   39.1477 H         1 UNK         0.0600 
@<TRIPOS>BOND
     1    1    2 1    
     2    1    5 2    
     3    1   27 1    
     4    2   10 2    
     5    2   28 1    
     6    3    6 ar   
     7    3    7 ar   
     8    3   29 1    
     9    4    6 ar   
    10    4    8 ar   
    11    4   30 1    
    12    5   25 1    
    13    5   31 1    
    14    6   11 1    
    15    7    9 ar   
    16    7   22 1    
    17    8    9 ar   
    18    8   23 1    
    19    9   24 1    
    20   10   17 1    
    21   10   25 1    
    22   11   18 ar   
    23   11   21 ar   
    24   12   19 ar   
    25   12   21 ar   
    26   12   26 1    
    27   13   17 1    
    28   13   20 2    
    29   13   26 1    
    30   14   22 1    
    31   14   32 1    
    32   14   33 1    
    33   14   34 1    
    34   15   23 1    
    35   15   35 1    
    36   15   36 1    
    37   15   37 1    
    38   16   24 1    
    39   16   38 1    
    40   16   39 1    
    41   16   40 1    
    42   17   41 1    
    43   17   42 1    
    44   18   19 ar   
    45   20   21 1    
@<TRIPOS>SUBSTRUCTURE
     1 UNK         1 GROUP             0       ****    0 ROOT    
@<TRIPOS>MOLECULE
ZINC02430172_187
48   51    1
SMALL
USER_CHARGES


@<TRIPOS>ATOM
      1 C1         -2.5575  -11.2313   36.3326 C.ar      1 UNK        -0.1150 
      2 C2         -3.3266  -10.0847   36.0562 C.ar      1 UNK        -0.1150 
      3 C3         -3.1113  -12.2856   37.0842 C.ar      1 UNK        -0.1150 
      4 C4         -4.6492   -9.9920   36.5303 C.ar      1 UNK        -0.1150 
      5 C5         -4.4330  -12.1929   37.5618 C.ar      1 UNK        -0.1150 
      6 C6         -6.8896   -3.7106   39.4149 C.ar      1 UNK        -0.1150 
      7 C7         -7.4436   -5.4330   37.7838 C.ar      1 UNK        -0.1150 
      8 C8         -6.6261   -4.9678   38.8349 C.ar      1 UNK         0.0000 
      9 C9         -5.2059  -11.0449   37.2883 C.ar      1 UNK        -0.1150 
     10 C10        -7.9677   -2.9150   38.9597 C.ar      1 UNK         0.0850 
     11 C11        -8.5326   -4.6590   37.3165 C.ar      1 UNK         0.0850 
     12 C12        -8.7790   -3.3979   37.9090 C.ar      1 UNK         0.0850 
     13 C13        -5.5049   -5.7636   39.3368 C.ar      1 UNK         0.4100 
     14 C14        -4.2021   -7.4259   39.9989 C.ar      1 UNK         0.4175 
     15 C15        -5.8969   -9.1749   39.5235 C.2       1 UNK         0.1303 
     16 C16        -7.4768   -1.1646   40.5338 C.3       1 UNK         0.1100 
     17 C17        -9.1958   -6.3573   35.7451 C.3       1 UNK         0.1100 
     18 C18        -9.5805   -1.9471   36.2672 C.3       1 UNK         0.1100 
     19 C19        -6.6220  -10.9360   37.8274 C.3       1 UNK        -0.0050 
     20 C20        -6.6829  -10.4484   39.2866 C.3       1 UNK        -0.0050 
     21 N21        -4.3319   -5.2560   39.7562 N.2       1 UNK        -0.3633 
     22 N22        -3.5055   -6.3303   40.1698 N.2       1 UNK        -0.3633 
     23 N23        -6.3867   -7.9663   39.2232 N.2       1 UNK        -0.2500 
     24 N24        -5.4052   -7.0834   39.4976 N.pl3     1 UNK        -0.0934 
     25 O25        -8.2788   -1.6750   39.4793 O.3       1 UNK        -0.2850 
     26 O26        -9.3820   -5.0678   36.3082 O.3       1 UNK        -0.2850 
     27 O27        -9.8328   -2.6301   37.4838 O.3       1 UNK        -0.2850 
     28 S28        -4.2129   -9.1718   40.1624 S.3       1 UNK        -0.0028 
     29 H29        -1.5426  -11.3019   35.9684 H         1 UNK         0.1150 
     30 H30        -2.9000   -9.2749   35.4819 H         1 UNK         0.1150 
     31 H31        -2.5204  -13.1650   37.2959 H         1 UNK         0.1150 
     32 H32        -5.2276   -9.1037   36.3201 H         1 UNK         0.1150 
     33 H33        -4.8472  -13.0051   38.1418 H         1 UNK         0.1150 
     34 H34        -6.2441   -3.3777   40.2135 H         1 UNK         0.1150 
     35 H35        -7.2152   -6.3901   37.3440 H         1 UNK         0.1150 
     36 H36        -7.8540   -0.1861   40.8305 H         1 UNK         0.0300 
     37 H37        -6.4399   -1.0368   40.2199 H         1 UNK         0.0300 
     38 H38        -7.5134   -1.8112   41.4116 H         1 UNK         0.0300 
     39 H39        -9.9647   -6.5341   34.9932 H         1 UNK         0.0300 
     40 H40        -9.2873   -7.1397   36.4998 H         1 UNK         0.0300 
     41 H41        -8.2268   -6.4402   35.2513 H         1 UNK         0.0300 
     42 H42       -10.4277   -1.3043   36.0303 H         1 UNK         0.0300 
     43 H43        -9.4426   -2.6373   35.4344 H         1 UNK         0.0300 
     44 H44        -8.6943   -1.3158   36.3475 H         1 UNK         0.0300 
     45 H45        -7.1214  -11.9010   37.7340 H         1 UNK         0.0600 
     46 H46        -7.1809  -10.2454   37.1944 H         1 UNK         0.0600 
     47 H47        -7.7189  -10.2950   39.5902 H         1 UNK         0.0600 
     48 H48        -6.2776  -11.2178   39.9442 H         1 UNK         0.0600 
@<TRIPOS>BOND
     1    1    2 ar   
     2    1    3 ar   
     3    1   29 1    
     4    2    4 ar   
     5    2   30 1    
     6    3    5 ar   
     7    3   31 1    
     8    4    9 ar   
     9    4   32 1    
    10    5    9 ar   
    11    5   33 1    
    12    6    8 ar   
    13    6   10 ar   
    14    6   34 1    
    15    7    8 ar   
    16    7   11 ar   
    17    7   35 1    
    18    8   13 1    
    19    9   19 1    
    20   10   12 ar   
    21   10   25 1    
    22   11   12 ar   
    23   11   26 1    
    24   12   27 1    
    25   13   21 ar   
    26   13   24 ar   
    27   14   22 ar   
    28   14   24 ar   
    29   14   28 1    
    30   15   20 1    
    31   15   23 2    
    32   15   28 1    
    33   16   25 1    
    34   16   36 1    
    35   16   37 1    
    36   16   38 1    
    37   17   26 1    
    38   17   39 1    
    39   17   40 1    
    40   17   41 1    
    41   18   27 1    
    42   18   42 1    
    43   18   43 1    
    44   18   44 1    
    45   19   20 1    
    46   19   45 1    
    47   19   46 1    
    48   20   47 1    
    49   20   48 1    
    50   21   22 ar   
    51   23   24 1    
@<TRIPOS>SUBSTRUCTURE
     1 UNK         1 GROUP             0       ****    0 ROOT    
@<TRIPOS>MOLECULE
ZINC02430871_112
48   50    1
SMALL
USER_CHARGES


@<TRIPOS>ATOM
      1 C1        -10.5558  -22.0773   37.7284 C.ar      1 UNK        -0.3541 
      2 C2         -9.4587  -21.2153   37.9181 C.ar      1 UNK        -0.0888 
      3 C3        -10.9874  -19.3409   38.2690 C.ar      1 UNK        -0.2243 
      4 C4        -16.4595  -14.2523   38.2342 C.ar      1 UNK        -0.1150 
      5 C5        -14.4103  -12.9513   38.1476 C.ar      1 UNK        -0.1150 
      6 C6        -14.1065  -21.1997   37.8450 C.ar      1 UNK        -0.1072 
      7 C7        -12.1103  -20.1804   38.0824 C.ar      1 UNK         0.1233 
      8 C8        -15.0536  -14.2033   38.1293 C.ar      1 UNK        -0.1150 
      9 C9        -13.5348  -19.9780   38.0950 C.ar      1 UNK        -0.1749 
     10 C10       -11.8592  -21.5575   37.8116 C.ar      1 UNK         0.2860 
     11 C11       -17.2263  -13.0750   38.3180 C.ar      1 UNK         0.0850 
     12 C12       -15.1485  -11.7572   38.2361 C.ar      1 UNK         0.0850 
     13 C13       -16.5697  -11.8118   38.2774 C.ar      1 UNK         0.0850 
     14 C14        -9.6760  -19.8503   38.1880 C.ar      1 UNK         0.1067 
     15 C15       -14.2376  -15.4581   38.0481 C.2       1 UNK         0.6150 
     16 C16       -19.3742  -12.2841   39.0634 C.3       1 UNK         0.1100 
     17 C17       -14.8409   -9.5754   39.1504 C.3       1 UNK         0.1100 
     18 C18       -17.4214  -10.1410   36.9048 C.3       1 UNK         0.1100 
     19 C19       -14.2499  -18.6848   38.3333 C.3       1 UNK        -0.0641 
     20 C20       -14.1538  -17.7491   37.1169 C.3       1 UNK         0.0800 
     21 N21       -13.1021  -22.1390   37.6749 N.pl3     1 UNK        -0.4786 
     22 N22       -14.7989  -16.4673   37.3708 N.am      1 UNK        -0.5000 
     23 O23       -13.1065  -15.5165   38.5245 O.2       1 UNK        -0.5000 
     24 O24       -18.5903  -13.2643   38.3979 O.3       1 UNK        -0.2850 
     25 O25       -14.4211  -10.5881   38.2453 O.3       1 UNK        -0.2850 
     26 O26       -17.3001  -10.6523   38.2234 O.3       1 UNK        -0.2850 
     27 Cl27       -8.3305  -18.7980   38.4190 Cl        1 UNK        -0.1800 
     28 H28       -10.3923  -23.1234   37.5221 H         1 UNK         0.1796 
     29 H29        -8.4483  -21.5944   37.8581 H         1 UNK         0.1359 
     30 H30       -11.1390  -18.2919   38.4779 H         1 UNK         0.1699 
     31 H31       -16.9727  -15.2020   38.2646 H         1 UNK         0.1150 
     32 H32       -13.3311  -12.9037   38.0988 H         1 UNK         0.1150 
     33 H33       -15.1507  -21.4742   37.7753 H         1 UNK         0.1929 
     34 H34       -20.3041  -12.7413   39.4006 H         1 UNK         0.0300 
     35 H35       -19.6414  -11.4688   38.3911 H         1 UNK         0.0300 
     36 H36       -18.8703  -11.8805   39.9433 H         1 UNK         0.0300 
     37 H37       -15.5394   -8.8866   38.6762 H         1 UNK         0.0300 
     38 H38       -13.9735   -8.9937   39.4619 H         1 UNK         0.0300 
     39 H39       -15.3012   -9.9859   40.0510 H         1 UNK         0.0300 
     40 H40       -18.0162   -9.2280   36.9203 H         1 UNK         0.0300 
     41 H41       -17.9226  -10.8574   36.2520 H         1 UNK         0.0300 
     42 H42       -16.4487   -9.8999   36.4736 H         1 UNK         0.0300 
     43 H43       -13.8203  -18.1948   39.2086 H         1 UNK         0.0600 
     44 H44       -15.2965  -18.8696   38.5773 H         1 UNK         0.0600 
     45 H45       -13.1085  -17.5830   36.8474 H         1 UNK         0.0600 
     46 H46       -14.6244  -18.2136   36.2499 H         1 UNK         0.0600 
     47 H47       -13.2772  -23.1144   37.4826 H         1 UNK         0.3577 
     48 H48       -15.7079  -16.3034   36.9686 H         1 UNK         0.3000 
@<TRIPOS>BOND
     1    1    2 ar   
     2    1   10 ar   
     3    1   28 1    
     4    2   14 ar   
     5    2   29 1    
     6    3    7 ar   
     7    3   14 ar   
     8    3   30 1    
     9    4    8 ar   
    10    4   11 ar   
    11    4   31 1    
    12    5    8 ar   
    13    5   12 ar   
    14    5   32 1    
    15    6    9 ar   
    16    6   21 ar   
    17    6   33 1    
    18    7    9 ar   
    19    7   10 ar   
    20    8   15 1    
    21    9   19 1    
    22   10   21 ar   
    23   11   13 ar   
    24   11   24 1    
    25   12   13 ar   
    26   12   25 1    
    27   13   26 1    
    28   14   27 1    
    29   15   22 am   BACKBONE|DICT|INTERRES
    30   15   23 2    
    31   16   24 1    
    32   16   34 1    
    33   16   35 1    
    34   16   36 1    
    35   17   25 1    
    36   17   37 1    
    37   17   38 1    
    38   17   39 1    
    39   18   26 1    
    40   18   40 1    
    41   18   41 1    
    42   18   42 1    
    43   19   20 1    
    44   19   43 1    
    45   19   44 1    
    46   20   22 1    
    47   20   45 1    
    48   20   46 1    
    49   21   47 1    
    50   22   48 1    
@<TRIPOS>SUBSTRUCTURE
     1 UNK         1 GROUP             0       ****    0 ROOT    
@<TRIPOS>MOLECULE
ZINC02441606_25
45   48    1
SMALL
USER_CHARGES


@<TRIPOS>ATOM
      1 C1         -5.9728  -10.1212   36.4058 C.ar      1 UNK        -0.1150 
      2 C2         -3.6805  -10.6727   37.0350 C.ar      1 UNK        -0.1150 
      3 C3         -5.5434   -9.8320   35.0958 C.ar      1 UNK        -0.1150 
      4 C4         -3.2537  -10.3843   35.7236 C.ar      1 UNK        -0.1150 
      5 C5         -6.8580   -4.2284   39.2618 C.ar      1 UNK        -0.1150 
      6 C6         -8.0882   -6.2255   38.6339 C.ar      1 UNK        -0.1150 
      7 C7         -7.1018   -5.6054   39.4242 C.ar      1 UNK         0.0000 
      8 C8         -5.0427  -10.5425   37.3808 C.ar      1 UNK        -0.1150 
      9 C9         -7.5723   -3.4584   38.3107 C.ar      1 UNK         0.0850 
     10 C10        -8.8052   -5.4885   37.6630 C.ar      1 UNK         0.0850 
     11 C11        -8.5381   -4.1099   37.4880 C.ar      1 UNK         0.0850 
     12 C12        -4.1843   -9.9641   34.7541 C.ar      1 UNK         0.1800 
     13 C13        -6.3245   -6.3569   40.4136 C.ar      1 UNK         0.4100 
     14 C14        -5.1735   -7.9235   41.4752 C.ar      1 UNK         0.4175 
     15 C15        -5.4913   -9.6174   39.6890 C.2       1 UNK         0.1303 
     16 C16        -6.4652   -1.4392   39.0456 C.3       1 UNK         0.1100 
     17 C17       -10.0383   -7.4374   36.9632 C.3       1 UNK         0.1100 
     18 C18        -8.7388   -2.3760   35.8180 C.3       1 UNK         0.1100 
     19 C19        -5.5053  -10.8421   38.7967 C.3       1 UNK         0.1100 
     20 N20        -5.8696   -5.8533   41.5756 N.2       1 UNK        -0.3633 
     21 N21        -5.1424   -6.8670   42.2476 N.2       1 UNK        -0.3633 
     22 N22        -6.1070   -8.4747   39.3595 N.2       1 UNK        -0.2500 
     23 N23        -5.8919   -7.6185   40.3774 N.pl3     1 UNK        -0.0934 
     24 O24        -7.3741   -2.0978   38.1748 O.3       1 UNK        -0.2850 
     25 O25        -9.7679   -6.0490   36.8466 O.3       1 UNK        -0.2850 
     26 O26        -9.2910   -3.4829   36.5139 O.3       1 UNK        -0.2850 
     27 S27        -4.6519   -9.5874   41.2805 S.3       1 UNK        -0.0028 
     28 Cl28       -3.6592   -9.6104   33.1502 Cl        1 UNK        -0.1800 
     29 H29        -7.0169  -10.0074   36.6596 H         1 UNK         0.1150 
     30 H30        -2.9555  -10.9888   37.7711 H         1 UNK         0.1150 
     31 H31        -6.2544   -9.5046   34.3514 H         1 UNK         0.1150 
     32 H32        -2.2112  -10.4815   35.4580 H         1 UNK         0.1150 
     33 H33        -6.1083   -3.7817   39.8966 H         1 UNK         0.1150 
     34 H34        -8.2855   -7.2731   38.7885 H         1 UNK         0.1150 
     35 H35        -6.4602   -0.3733   38.8183 H         1 UNK         0.0300 
     36 H36        -5.4470   -1.8075   38.9131 H         1 UNK         0.0300 
     37 H37        -6.7596   -1.5501   40.0902 H         1 UNK         0.0300 
     38 H38       -10.8035   -7.7151   36.2384 H         1 UNK         0.0300 
     39 H39       -10.4179   -7.6875   37.9547 H         1 UNK         0.0300 
     40 H40        -9.1514   -8.0360   36.7507 H         1 UNK         0.0300 
     41 H41        -9.2367   -2.2787   34.8536 H         1 UNK         0.0300 
     42 H42        -7.6723   -2.5009   35.6244 H         1 UNK         0.0300 
     43 H43        -8.9054   -1.4462   36.3621 H         1 UNK         0.0300 
     44 H44        -6.5169  -11.2485   38.7739 H         1 UNK         0.0600 
     45 H45        -4.8709  -11.6141   39.2335 H         1 UNK         0.0600 
@<TRIPOS>BOND
     1    1    3 ar   
     2    1    8 ar   
     3    1   29 1    
     4    2    4 ar   
     5    2    8 ar   
     6    2   30 1    
     7    3   12 ar   
     8    3   31 1    
     9    4   12 ar   
    10    4   32 1    
    11    5    7 ar   
    12    5    9 ar   
    13    5   33 1    
    14    6    7 ar   
    15    6   10 ar   
    16    6   34 1    
    17    7   13 1    
    18    8   19 1    
    19    9   11 ar   
    20    9   24 1    
    21   10   11 ar   
    22   10   25 1    
    23   11   26 1    
    24   12   28 1    
    25   13   20 ar   
    26   13   23 ar   
    27   14   21 ar   
    28   14   23 ar   
    29   14   27 1    
    30   15   19 1    
    31   15   22 2    
    32   15   27 1    
    33   16   24 1    
    34   16   35 1    
    35   16   36 1    
    36   16   37 1    
    37   17   25 1    
    38   17   38 1    
    39   17   39 1    
    40   17   40 1    
    41   18   26 1    
    42   18   41 1    
    43   18   42 1    
    44   18   43 1    
    45   19   44 1    
    46   19   45 1    
    47   20   21 ar   
    48   22   23 1    
@<TRIPOS>SUBSTRUCTURE
     1 UNK         1 GROUP             0       ****    0 ROOT    
@<TRIPOS>MOLECULE
ZINC02643168_158
38   39    1
SMALL
USER_CHARGES


@<TRIPOS>ATOM
      1 C1        -10.5087   -8.6691   38.1547 C.ar      1 UNK        -0.1150 
      2 C2        -11.1756   -7.8776   37.2053 C.ar      1 UNK        -0.1150 
      3 C3         -7.5407  -13.8512   37.1158 C.2       1 UNK        -0.1540 
      4 C4         -6.7531  -13.6534   35.9474 C.2       1 UNK        -0.1540 
      5 C5         -9.6671   -6.6497   39.2073 C.ar      1 UNK        -0.1150 
      6 C6         -9.7431   -8.0598   39.1715 C.ar      1 UNK        -0.1150 
      7 C7        -11.1036   -6.4715   37.2330 C.ar      1 UNK         0.0850 
      8 C8        -10.3367   -5.8350   38.2558 C.ar      1 UNK         0.0850 
      9 C9         -7.7495  -12.6143   37.6620 C.2       1 UNK         0.0080 
     10 C10        -6.5357  -12.3075   35.8582 C.2       1 UNK         0.0080 
     11 C11        -9.0095   -8.8526   40.2045 C.2       1 UNK         0.5370 
     12 C12        -8.4909  -12.2203   38.8570 C.2       1 UNK         0.6250 
     13 C13        -5.8038  -11.4439   34.8901 C.3       1 UNK        -0.0650 
     14 C14       -11.7621   -4.4491   36.0481 C.3       1 UNK         0.1100 
     15 C15        -9.4740   -3.8331   39.3066 C.3       1 UNK         0.1100 
     16 C16        -9.1500  -10.3751   40.1916 C.3       1 UNK         0.2380 
     17 O17        -8.3136   -8.3329   41.0776 O.2       1 UNK        -0.4700 
     18 O18        -9.0944  -13.0265   39.5658 O.2       1 UNK        -0.4300 
     19 O19        -7.1373  -11.6633   36.8959 O.3       1 UNK        -0.1900 
     20 O20       -11.8183   -5.8553   36.2229 O.3       1 UNK        -0.2850 
     21 O21       -10.2665   -4.4565   38.3057 O.3       1 UNK        -0.2850 
     22 O22        -8.4493  -10.9043   39.0790 O.3       1 UNK        -0.3300 
     23 H23       -10.5964   -9.7422   38.0733 H         1 UNK         0.1150 
     24 H24       -11.7551   -8.3561   36.4293 H         1 UNK         0.1150 
     25 H25        -7.9146  -14.7824   37.5166 H         1 UNK         0.1260 
     26 H26        -6.3920  -14.4031   35.2580 H         1 UNK         0.1260 
     27 H27        -9.0769   -6.2053   39.9941 H         1 UNK         0.1150 
     28 H28        -6.5026  -10.8670   34.2845 H         1 UNK         0.0600 
     29 H29        -5.1512  -10.7444   35.4125 H         1 UNK         0.0600 
     30 H30        -5.1886  -12.0436   34.2195 H         1 UNK         0.0600 
     31 H31       -12.3315   -4.1791   35.1589 H         1 UNK         0.0300 
     32 H32       -10.7396   -4.1025   35.8946 H         1 UNK         0.0300 
     33 H33       -12.2124   -3.9240   36.8908 H         1 UNK         0.0300 
     34 H34        -9.5268   -2.7517   39.1820 H         1 UNK         0.0300 
     35 H35        -8.4253   -4.1214   39.2234 H         1 UNK         0.0300 
     36 H36        -9.8383   -4.0648   40.3083 H         1 UNK         0.0300 
     37 H37       -10.2058  -10.6463   40.1531 H         1 UNK         0.0300 
     38 H38        -8.7396  -10.7826   41.1167 H         1 UNK         0.0300 
@<TRIPOS>BOND
     1    1    2 ar   
     2    1    6 ar   
     3    1   23 1    
     4    2    7 ar   
     5    2   24 1    
     6    3    4 1    
     7    3    9 2    
     8    3   25 1    
     9    4   10 2    
    10    4   26 1    
    11    5    6 ar   
    12    5    8 ar   
    13    5   27 1    
    14    6   11 1    
    15    7    8 ar   
    16    7   20 1    
    17    8   21 1    
    18    9   12 1    
    19    9   19 1    
    20   10   13 1    
    21   10   19 1    
    22   11   16 1    
    23   11   17 2    
    24   12   18 2    
    25   12   22 1    
    26   13   28 1    
    27   13   29 1    
    28   13   30 1    
    29   14   20 1    
    30   14   31 1    
    31   14   32 1    
    32   14   33 1    
    33   15   21 1    
    34   15   34 1    
    35   15   35 1    
    36   15   36 1    
    37   16   22 1    
    38   16   37 1    
    39   16   38 1    
@<TRIPOS>SUBSTRUCTURE
     1 UNK         1 GROUP             0       ****    0 ROOT    
@<TRIPOS>MOLECULE
ZINC02643187_216
38   39    1
SMALL
USER_CHARGES


@<TRIPOS>ATOM
      1 C1        -10.5579   -8.9269   38.1457 C.ar      1 UNK        -0.1150 
      2 C2        -11.2325   -8.1276   37.2080 C.ar      1 UNK        -0.1150 
      3 C3         -6.8786  -14.2365   36.0088 C.2       1 UNK        -0.0738 
      4 C4         -9.7472   -6.9149   39.2362 C.ar      1 UNK        -0.1150 
      5 C5         -6.5597  -12.9800   35.5685 C.2       1 UNK        -0.3255 
      6 C6         -9.8042   -8.3250   39.1756 C.ar      1 UNK        -0.1150 
      7 C7         -7.6127  -14.2428   37.2358 C.2       1 UNK        -0.0677 
      8 C8        -11.1791   -6.7213   37.2606 C.ar      1 UNK         0.0850 
      9 C9        -10.4275   -6.0927   38.2992 C.ar      1 UNK         0.0850 
     10 C10        -7.8411  -12.9685   37.7136 C.2       1 UNK        -0.1787 
     11 C11        -9.0601   -9.1246   40.1957 C.2       1 UNK         0.5370 
     12 C12        -8.5533  -12.5252   38.9212 C.2       1 UNK         0.6250 
     13 C13        -8.0667  -15.5104   37.9000 C.3       1 UNK        -0.0650 
     14 C14       -11.8051   -4.6919   36.0721 C.3       1 UNK         0.1100 
     15 C15        -9.6351   -4.0982   39.4167 C.3       1 UNK         0.1100 
     16 C16        -9.2311  -10.6436   40.1993 C.3       1 UNK         0.2380 
     17 O17        -8.3353   -8.6114   41.0488 O.2       1 UNK        -0.4700 
     18 O18        -9.1117  -13.3050   39.6937 O.2       1 UNK        -0.4300 
     19 O19       -11.8977   -6.0949   36.2598 O.3       1 UNK        -0.2850 
     20 O20       -10.3844   -4.7144   38.3787 O.3       1 UNK        -0.2850 
     21 O21        -8.5452  -11.1988   39.0899 O.3       1 UNK        -0.3300 
     22 S22        -7.1523  -11.7559   36.6518 S.3       1 UNK         0.0328 
     23 H23       -10.6293   -9.9997   38.0445 H         1 UNK         0.1150 
     24 H24       -11.8027   -8.6002   36.4215 H         1 UNK         0.1150 
     25 H25        -6.6116  -15.1488   35.4942 H         1 UNK         0.1211 
     26 H26        -9.1647   -6.4763   40.0320 H         1 UNK         0.1150 
     27 H27        -6.0151  -12.6967   34.6790 H         1 UNK         0.2618 
     28 H28        -7.6526  -15.5998   38.9046 H         1 UNK         0.0600 
     29 H29        -9.1531  -15.5432   37.9865 H         1 UNK         0.0600 
     30 H30        -7.7569  -16.3931   37.3404 H         1 UNK         0.0600 
     31 H31       -12.3439   -4.4201   35.1647 H         1 UNK         0.0300 
     32 H32       -10.7714   -4.3687   35.9433 H         1 UNK         0.0300 
     33 H33       -12.2667   -4.1476   36.8963 H         1 UNK         0.0300 
     34 H34        -9.7171   -3.0155   39.3224 H         1 UNK         0.0300 
     35 H35        -8.5765   -4.3535   39.3518 H         1 UNK         0.0300 
     36 H36       -10.0163   -4.3707   40.4019 H         1 UNK         0.0300 
     37 H37       -10.2917  -10.8957   40.1646 H         1 UNK         0.0300 
     38 H38        -8.8271  -11.0478   41.1287 H         1 UNK         0.0300 
@<TRIPOS>BOND
     1    1    2 ar   
     2    1    6 ar   
     3    1   23 1    
     4    2    8 ar   
     5    2   24 1    
     6    3    5 2    
     7    3    7 1    
     8    3   25 1    
     9    4    6 ar   
    10    4    9 ar   
    11    4   26 1    
    12    5   22 1    
    13    5   27 1    
    14    6   11 1    
    15    7   10 2    
    16    7   13 1    
    17    8    9 ar   
    18    8   19 1    
    19    9   20 1    
    20   10   12 1    
    21   10   22 1    
    22   11   16 1    
    23   11   17 2    
    24   12   18 2    
    25   12   21 1    
    26   13   28 1    
    27   13   29 1    
    28   13   30 1    
    29   14   19 1    
    30   14   31 1    
    31   14   32 1    
    32   14   33 1    
    33   15   20 1    
    34   15   34 1    
    35   15   35 1    
    36   15   36 1    
    37   16   21 1    
    38   16   37 1    
    39   16   38 1    
@<TRIPOS>SUBSTRUCTURE
     1 UNK         1 GROUP             0       ****    0 ROOT    
@<TRIPOS>MOLECULE
ZINC02676489_36
44   45    1
SMALL
USER_CHARGES


@<TRIPOS>ATOM
      1 C1         -8.3139   -5.9519   38.6561 C.ar      1 UNK        -0.1150 
      2 C2         -6.7369   -4.2744   39.4596 C.ar      1 UNK        -0.1150 
      3 C3         -7.2907   -5.5672   39.5496 C.ar      1 UNK        -0.1150 
      4 C4         -8.7481   -5.0719   37.6363 C.ar      1 UNK         0.0850 
      5 C5         -7.1597   -3.3762   38.4510 C.ar      1 UNK         0.0850 
      6 C6         -8.1565   -3.7921   37.5396 C.ar      1 UNK         0.0850 
      7 C7         -6.8372   -6.4892   40.6447 C.2       1 UNK         0.6150 
      8 C8         -4.6034   -8.9730   41.4117 C.3       1 UNK        -0.1200 
      9 C9         -4.0524   -9.3819   40.0336 C.3       1 UNK        -0.1200 
     10 C10        -6.1233   -8.7461   41.3464 C.3       1 UNK        -0.0500 
     11 C11        -6.0282   -8.1981   38.9739 C.3       1 UNK        -0.0500 
     12 C12        -4.4964   -8.4077   38.9183 C.3       1 UNK         0.0286 
     13 C13       -10.3704   -6.6485   36.8171 C.3       1 UNK         0.1100 
     14 C14        -5.7165   -1.6285   39.2530 C.3       1 UNK         0.1100 
     15 C15        -7.8356   -3.0525   35.3601 C.3       1 UNK         0.1100 
     16 C16        -4.0271   -8.8706   37.5230 C.3       1 UNK         0.5114 
     17 N17        -6.4231   -7.7405   40.3180 N.am      1 UNK        -0.1400 
     18 O18        -6.8568   -6.0767   41.8031 O.2       1 UNK        -0.5000 
     19 O19        -9.7231   -5.3898   36.7134 O.3       1 UNK        -0.2850 
     20 O20        -6.6494   -2.1040   38.2945 O.3       1 UNK        -0.2850 
     21 O21        -8.5761   -2.9289   36.5613 O.3       1 UNK        -0.2850 
     22 F22        -4.5831  -10.0406   37.2081 F         1 UNK        -0.2000 
     23 F23        -4.3715   -7.9673   36.6062 F         1 UNK        -0.2000 
     24 F24        -2.7013   -9.0010   37.5092 F         1 UNK        -0.2000 
     25 H25        -8.7504   -6.9323   38.7699 H         1 UNK         0.1150 
     26 H26        -5.9833   -3.9948   40.1807 H         1 UNK         0.1150 
     27 H27        -4.3694   -9.7399   42.1513 H         1 UNK         0.0600 
     28 H28        -4.1126   -8.0592   41.7509 H         1 UNK         0.0600 
     29 H29        -2.9640   -9.4396   40.0713 H         1 UNK         0.0600 
     30 H30        -4.4014  -10.3872   39.7937 H         1 UNK         0.0600 
     31 H31        -6.6347   -9.6775   41.0993 H         1 UNK         0.0600 
     32 H32        -6.4983   -8.4591   42.3310 H         1 UNK         0.0600 
     33 H33        -6.3068   -7.5068   38.1813 H         1 UNK         0.0600 
     34 H34        -6.5457   -9.1307   38.7463 H         1 UNK         0.0600 
     35 H35        -4.0219   -7.4442   39.1114 H         1 UNK         0.0600 
     36 H36       -11.1217   -6.7302   36.0318 H         1 UNK         0.0300 
     37 H37       -10.8819   -6.7563   37.7745 H         1 UNK         0.0300 
     38 H38        -9.6663   -7.4711   36.6862 H         1 UNK         0.0300 
     39 H39        -5.4502   -0.5990   39.0144 H         1 UNK         0.0300 
     40 H40        -4.7984   -2.2172   39.2419 H         1 UNK         0.0300 
     41 H41        -6.1392   -1.6342   40.2587 H         1 UNK         0.0300 
     42 H42        -8.2125   -2.3427   34.6241 H         1 UNK         0.0300 
     43 H43        -7.9291   -4.0547   34.9394 H         1 UNK         0.0300 
     44 H44        -6.7783   -2.8387   35.5231 H         1 UNK         0.0300 
@<TRIPOS>BOND
     1    1    3 ar   
     2    1    4 ar   
     3    1   25 1    
     4    2    3 ar   
     5    2    5 ar   
     6    2   26 1    
     7    3    7 1    
     8    4    6 ar   
     9    4   19 1    
    10    5    6 ar   
    11    5   20 1    
    12    6   21 1    
    13    7   17 am   BACKBONE|DICT|INTERRES
    14    7   18 2    
    15    8    9 1    
    16    8   10 1    
    17    8   27 1    
    18    8   28 1    
    19    9   12 1    
    20    9   29 1    
    21    9   30 1    
    22   10   17 1    
    23   10   31 1    
    24   10   32 1    
    25   11   12 1    
    26   11   17 1    
    27   11   33 1    
    28   11   34 1    
    29   12   16 1    
    30   12   35 1    
    31   13   19 1    
    32   13   36 1    
    33   13   37 1    
    34   13   38 1    
    35   14   20 1    
    36   14   39 1    
    37   14   40 1    
    38   14   41 1    
    39   15   21 1    
    40   15   42 1    
    41   15   43 1    
    42   15   44 1    
    43   16   22 1    
    44   16   23 1    
    45   16   24 1    
@<TRIPOS>SUBSTRUCTURE
     1 UNK         1 GROUP             0       ****    0 ROOT    
@<TRIPOS>MOLECULE
ZINC02720415_129
53   55    1
SMALL
USER_CHARGES


@<TRIPOS>ATOM
      1 C1         -7.8108   -6.0604   38.2688 C.ar      1 UNK        -0.1150 
      2 C2         -7.5916   -4.1296   39.7299 C.ar      1 UNK        -0.1150 
      3 C3         -7.3339   -5.4872   39.4627 C.ar      1 UNK         0.0000 
      4 C4         -8.5367   -5.2842   37.3371 C.ar      1 UNK         0.0850 
      5 C5         -8.3221   -3.3273   38.8181 C.ar      1 UNK         0.0850 
      6 C6         -8.7837   -3.9163   37.6034 C.ar      1 UNK         0.0850 
      7 C7         -6.5894   -6.2937   40.4258 C.2       1 UNK         0.5614 
      8 C8         -5.7553   -8.0339   41.2720 C.2       1 UNK         0.7139 
      9 C9         -5.0619   -9.7659   38.6327 C.2       1 UNK         0.5000 
     10 C10        -3.8353  -10.8233   35.5811 C.3       1 UNK        -0.1200 
     11 C11        -4.7742  -11.9920   35.2294 C.3       1 UNK        -0.1200 
     12 C12        -4.6168   -9.6496   36.1993 C.3       1 UNK        -0.0500 
     13 C13        -6.3808  -11.1314   36.9828 C.3       1 UNK        -0.0500 
     14 C14        -5.6750  -12.3828   36.4201 C.3       1 UNK        -0.0600 
     15 C15        -6.6817  -13.4728   36.0282 C.3       1 UNK        -0.1800 
     16 C16        -8.7785   -7.1536   35.8340 C.3       1 UNK         0.1100 
     17 C17        -8.1449   -1.4147   40.2868 C.3       1 UNK         0.1100 
     18 C18        -9.2788   -1.8638   36.4294 C.3       1 UNK         0.1100 
     19 C19        -5.8704  -10.3551   39.8026 C.3       1 UNK         0.0475 
     20 N20        -5.9048   -5.8891   41.5001 N.2       1 UNK        -0.3751 
     21 N21        -5.3623   -7.0281   42.0545 N.2       1 UNK        -0.3751 
     22 N22        -5.3675  -10.1369   37.3649 N.am      1 UNK        -0.1400 
     23 O23        -4.1663   -8.9569   38.8759 O.2       1 UNK        -0.5000 
     24 O24        -6.5697   -7.6420   40.2591 O.3       1 UNK        -0.3726 
     25 O25        -9.0229   -5.7908   36.1479 O.3       1 UNK        -0.2850 
     26 O26        -8.6214   -2.0056   39.0856 O.3       1 UNK        -0.2850 
     27 O27        -9.5072   -3.2498   36.6333 O.3       1 UNK        -0.2850 
     28 S28        -5.4074   -9.7524   41.4631 S.3       1 UNK        -0.3200 
     29 H29        -7.6030   -7.1013   38.0793 H         1 UNK         0.1150 
     30 H30        -7.2213   -3.7278   40.6607 H         1 UNK         0.1150 
     31 H31        -3.0743  -11.1631   36.2854 H         1 UNK         0.0600 
     32 H32        -3.3012  -10.4911   34.6901 H         1 UNK         0.0600 
     33 H33        -5.3965  -11.7027   34.3813 H         1 UNK         0.0600 
     34 H34        -4.1881  -12.8507   34.8992 H         1 UNK         0.0600 
     35 H35        -3.9271   -8.8410   36.4487 H         1 UNK         0.0600 
     36 H36        -5.3105   -9.2299   35.4697 H         1 UNK         0.0600 
     37 H37        -7.0330  -10.6966   36.2236 H         1 UNK         0.0600 
     38 H38        -7.0422  -11.4164   37.7992 H         1 UNK         0.0600 
     39 H39        -5.0360  -12.7931   37.2045 H         1 UNK         0.0600 
     40 H40        -7.2867  -13.7778   36.8827 H         1 UNK         0.0600 
     41 H41        -6.1719  -14.3623   35.6565 H         1 UNK         0.0600 
     42 H42        -7.3595  -13.1284   35.2463 H         1 UNK         0.0600 
     43 H43        -9.2218   -7.3825   34.8650 H         1 UNK         0.0300 
     44 H44        -9.2326   -7.8197   36.5688 H         1 UNK         0.0300 
     45 H45        -7.7100   -7.3625   35.7647 H         1 UNK         0.0300 
     46 H46        -8.4575   -0.3712   40.3207 H         1 UNK         0.0300 
     47 H47        -7.0552   -1.4320   40.3364 H         1 UNK         0.0300 
     48 H48        -8.5576   -1.9087   41.1675 H         1 UNK         0.0300 
     49 H49        -9.5778   -1.6005   35.4150 H         1 UNK         0.0300 
     50 H50        -8.2261   -1.5987   36.5391 H         1 UNK         0.0300 
     51 H51        -9.8812   -1.2610   37.1089 H         1 UNK         0.0300 
     52 H52        -5.7459  -11.4376   39.7990 H         1 UNK         0.0600 
     53 H53        -6.9300  -10.1485   39.6541 H         1 UNK         0.0600 
@<TRIPOS>BOND
     1    1    3 ar   
     2    1    4 ar   
     3    1   29 1    
     4    2    3 ar   
     5    2    5 ar   
     6    2   30 1    
     7    3    7 1    
     8    4    6 ar   
     9    4   25 1    
    10    5    6 ar   
    11    5   26 1    
    12    6   27 1    
    13    7   20 2    
    14    7   24 1    
    15    8   21 2    
    16    8   24 1    
    17    8   28 1    
    18    9   19 1    
    19    9   22 am   BACKBONE|DICT|INTERRES
    20    9   23 2    
    21   10   11 1    
    22   10   12 1    
    23   10   31 1    
    24   10   32 1    
    25   11   14 1    
    26   11   33 1    
    27   11   34 1    
    28   12   22 1    
    29   12   35 1    
    30   12   36 1    
    31   13   14 1    
    32   13   22 1    
    33   13   37 1    
    34   13   38 1    
    35   14   15 1    
    36   14   39 1    
    37   15   40 1    
    38   15   41 1    
    39   15   42 1    
    40   16   25 1    
    41   16   43 1    
    42   16   44 1    
    43   16   45 1    
    44   17   26 1    
    45   17   46 1    
    46   17   47 1    
    47   17   48 1    
    48   18   27 1    
    49   18   49 1    
    50   18   50 1    
    51   18   51 1    
    52   19   28 1    
    53   19   52 1    
    54   19   53 1    
    55   20   21 1    
@<TRIPOS>SUBSTRUCTURE
     1 UNK         1 GROUP             0       ****    0 ROOT    
@<TRIPOS>MOLECULE
ZINC02721397_146
50   52    1
SMALL
USER_CHARGES


@<TRIPOS>ATOM
      1 C1        -11.1742  -24.0812   36.4241 C.ar      1 UNK        -0.1490 
      2 C2        -10.6521  -23.9706   37.7303 C.ar      1 UNK        -0.1817 
      3 C3        -12.0982  -23.1291   35.9421 C.ar      1 UNK        -0.3696 
      4 C4        -11.0508  -22.9053   38.5634 C.ar      1 UNK        -0.3290 
      5 C5        -16.3271  -14.6200   37.8617 C.ar      1 UNK        -0.1150 
      6 C6        -14.8226  -13.6764   39.5171 C.ar      1 UNK        -0.1150 
      7 C7        -15.1822  -14.7432   38.6747 C.ar      1 UNK        -0.1150 
      8 C8        -12.5114  -22.0561   36.7595 C.ar      1 UNK         0.4982 
      9 C9        -11.9727  -21.9596   38.0755 C.ar      1 UNK         0.2299 
     10 C10       -17.0862  -13.4238   37.8508 C.ar      1 UNK         0.0850 
     11 C11       -15.5613  -12.4796   39.5409 C.ar      1 UNK         0.0850 
     12 C12       -16.6806  -12.3320   38.6701 C.ar      1 UNK         0.0850 
     13 C13       -13.3773  -20.3410   37.6448 C.ar      1 UNK         0.3638 
     14 C14       -14.3802  -16.0094   38.6966 C.2       1 UNK         0.6150 
     15 C15       -12.3369  -20.2647   39.9397 C.3       1 UNK        -0.0575 
     16 C16       -18.6940  -14.3792   36.3211 C.3       1 UNK         0.1100 
     17 C17       -15.9762  -10.5450   40.9297 C.3       1 UNK         0.1100 
     18 C18       -17.6205  -10.5591   37.3766 C.3       1 UNK         0.1100 
     19 C19       -14.1894  -19.0966   37.8313 C.3       1 UNK        -0.0050 
     20 C20       -13.4610  -17.8446   37.3116 C.3       1 UNK         0.0800 
     21 N21       -13.3899  -21.0224   36.5002 N.2       1 UNK        -0.6787 
     22 N22       -12.5590  -20.8184   38.6140 N.pl3     1 UNK        -0.3410 
     23 N23       -14.2395  -16.6249   37.5165 N.am      1 UNK        -0.5000 
     24 O24       -13.8508  -16.4159   39.7282 O.2       1 UNK        -0.5000 
     25 O25       -18.2271  -13.2776   37.0858 O.3       1 UNK        -0.2850 
     26 O26       -15.0844  -11.5219   40.4139 O.3       1 UNK        -0.2850 
     27 O27       -17.3656  -11.1364   38.6503 O.3       1 UNK        -0.2850 
     28 H28       -10.8652  -24.9002   35.7888 H         1 UNK         0.1514 
     29 H29        -9.9450  -24.7059   38.0915 H         1 UNK         0.1607 
     30 H30       -12.5012  -23.2087   34.9448 H         1 UNK         0.2091 
     31 H31       -10.6556  -22.8145   39.5630 H         1 UNK         0.1984 
     32 H32       -16.6196  -15.4657   37.2599 H         1 UNK         0.1150 
     33 H33       -13.9646  -13.7769   40.1673 H         1 UNK         0.1150 
     34 H34       -11.4788  -20.7409   40.4136 H         1 UNK         0.0600 
     35 H35       -12.1431  -19.1933   39.8729 H         1 UNK         0.0600 
     36 H36       -13.2182  -20.4299   40.5601 H         1 UNK         0.0600 
     37 H37       -19.6117  -14.0941   35.8068 H         1 UNK         0.0300 
     38 H38       -18.9260  -15.2362   36.9549 H         1 UNK         0.0300 
     39 H39       -17.9697  -14.6730   35.5605 H         1 UNK         0.0300 
     40 H40       -16.9474  -10.9710   41.1868 H         1 UNK         0.0300 
     41 H41       -16.1106   -9.7226   40.2269 H         1 UNK         0.0300 
     42 H42       -15.5534  -10.1237   41.8415 H         1 UNK         0.0300 
     43 H43       -18.6208  -10.8137   37.0263 H         1 UNK         0.0300 
     44 H44       -16.8912  -10.8634   36.6239 H         1 UNK         0.0300 
     45 H45       -17.5723   -9.4737   37.4607 H         1 UNK         0.0300 
     46 H46       -14.4498  -18.9880   38.8842 H         1 UNK         0.0600 
     47 H47       -15.1334  -19.2234   37.3002 H         1 UNK         0.0600 
     48 H48       -12.4913  -17.7456   37.8034 H         1 UNK         0.0600 
     49 H49       -13.2552  -17.9567   36.2465 H         1 UNK         0.0600 
     50 H50       -14.6520  -16.1832   36.7100 H         1 UNK         0.3000 
@<TRIPOS>BOND
     1    1    2 ar   
     2    1    3 ar   
     3    1   28 1    
     4    2    4 ar   
     5    2   29 1    
     6    3    8 ar   
     7    3   30 1    
     8    4    9 ar   
     9    4   31 1    
    10    5    7 ar   
    11    5   10 ar   
    12    5   32 1    
    13    6    7 ar   
    14    6   11 ar   
    15    6   33 1    
    16    7   14 1    
    17    8    9 ar   
    18    8   21 ar   
    19    9   22 ar   
    20   10   12 ar   
    21   10   25 1    
    22   11   12 ar   
    23   11   26 1    
    24   12   27 1    
    25   13   19 1    
    26   13   21 ar   
    27   13   22 ar   
    28   14   23 am   BACKBONE|DICT|INTERRES
    29   14   24 2    
    30   15   22 1    
    31   15   34 1    
    32   15   35 1    
    33   15   36 1    
    34   16   25 1    
    35   16   37 1    
    36   16   38 1    
    37   16   39 1    
    38   17   26 1    
    39   17   40 1    
    40   17   41 1    
    41   17   42 1    
    42   18   27 1    
    43   18   43 1    
    44   18   44 1    
    45   18   45 1    
    46   19   20 1    
    47   19   46 1    
    48   19   47 1    
    49   20   23 1    
    50   20   48 1    
    51   20   49 1    
    52   23   50 1    
@<TRIPOS>SUBSTRUCTURE
     1 UNK         1 GROUP             0       ****    0 ROOT    
@<TRIPOS>MOLECULE
ZINC02721397_146
50   52    1
SMALL
USER_CHARGES


@<TRIPOS>ATOM
      1 C1        -11.1742  -24.0812   36.4241 C.ar      1 UNK        -0.1490 
      2 C2        -10.6521  -23.9706   37.7303 C.ar      1 UNK        -0.1817 
      3 C3        -12.0982  -23.1291   35.9421 C.ar      1 UNK        -0.3696 
      4 C4        -11.0508  -22.9053   38.5634 C.ar      1 UNK        -0.3290 
      5 C5        -16.3271  -14.6200   37.8617 C.ar      1 UNK        -0.1150 
      6 C6        -14.8226  -13.6764   39.5171 C.ar      1 UNK        -0.1150 
      7 C7        -15.1822  -14.7432   38.6747 C.ar      1 UNK        -0.1150 
      8 C8        -12.5114  -22.0561   36.7595 C.ar      1 UNK         0.4982 
      9 C9        -11.9727  -21.9596   38.0755 C.ar      1 UNK         0.2299 
     10 C10       -17.0862  -13.4238   37.8508 C.ar      1 UNK         0.0850 
     11 C11       -15.5613  -12.4796   39.5409 C.ar      1 UNK         0.0850 
     12 C12       -16.6806  -12.3320   38.6701 C.ar      1 UNK         0.0850 
     13 C13       -13.3773  -20.3410   37.6448 C.ar      1 UNK         0.3638 
     14 C14       -14.3802  -16.0094   38.6966 C.2       1 UNK         0.6150 
     15 C15       -12.3369  -20.2647   39.9397 C.3       1 UNK        -0.0575 
     16 C16       -18.6940  -14.3792   36.3211 C.3       1 UNK         0.1100 
     17 C17       -15.9762  -10.5450   40.9297 C.3       1 UNK         0.1100 
     18 C18       -17.6205  -10.5591   37.3766 C.3       1 UNK         0.1100 
     19 C19       -14.1894  -19.0966   37.8313 C.3       1 UNK        -0.0050 
     20 C20       -13.4610  -17.8446   37.3116 C.3       1 UNK         0.0800 
     21 N21       -13.3899  -21.0224   36.5002 N.2       1 UNK        -0.6787 
     22 N22       -12.5590  -20.8184   38.6140 N.pl3     1 UNK        -0.3410 
     23 N23       -14.2395  -16.6249   37.5165 N.am      1 UNK        -0.5000 
     24 O24       -13.8508  -16.4159   39.7282 O.2       1 UNK        -0.5000 
     25 O25       -18.2271  -13.2776   37.0858 O.3       1 UNK        -0.2850 
     26 O26       -15.0844  -11.5219   40.4139 O.3       1 UNK        -0.2850 
     27 O27       -17.3656  -11.1364   38.6503 O.3       1 UNK        -0.2850 
     28 H28       -10.8652  -24.9002   35.7888 H         1 UNK         0.1514 
     29 H29        -9.9450  -24.7059   38.0915 H         1 UNK         0.1607 
     30 H30       -12.5012  -23.2087   34.9448 H         1 UNK         0.2091 
     31 H31       -10.6556  -22.8145   39.5630 H         1 UNK         0.1984 
     32 H32       -16.6196  -15.4657   37.2599 H         1 UNK         0.1150 
     33 H33       -13.9646  -13.7769   40.1673 H         1 UNK         0.1150 
     34 H34       -11.4788  -20.7409   40.4136 H         1 UNK         0.0600 
     35 H35       -12.1431  -19.1933   39.8729 H         1 UNK         0.0600 
     36 H36       -13.2182  -20.4299   40.5601 H         1 UNK         0.0600 
     37 H37       -19.6117  -14.0941   35.8068 H         1 UNK         0.0300 
     38 H38       -18.9260  -15.2362   36.9549 H         1 UNK         0.0300 
     39 H39       -17.9697  -14.6730   35.5605 H         1 UNK         0.0300 
     40 H40       -16.9474  -10.9710   41.1868 H         1 UNK         0.0300 
     41 H41       -16.1106   -9.7226   40.2269 H         1 UNK         0.0300 
     42 H42       -15.5534  -10.1237   41.8415 H         1 UNK         0.0300 
     43 H43       -18.6208  -10.8137   37.0263 H         1 UNK         0.0300 
     44 H44       -16.8912  -10.8634   36.6239 H         1 UNK         0.0300 
     45 H45       -17.5723   -9.4737   37.4607 H         1 UNK         0.0300 
     46 H46       -14.4498  -18.9880   38.8842 H         1 UNK         0.0600 
     47 H47       -15.1334  -19.2234   37.3002 H         1 UNK         0.0600 
     48 H48       -12.4913  -17.7456   37.8034 H         1 UNK         0.0600 
     49 H49       -13.2552  -17.9567   36.2465 H         1 UNK         0.0600 
     50 H50       -14.6520  -16.1832   36.7100 H         1 UNK         0.3000 
@<TRIPOS>BOND
     1    1    2 ar   
     2    1    3 ar   
     3    1   28 1    
     4    2    4 ar   
     5    2   29 1    
     6    3    8 ar   
     7    3   30 1    
     8    4    9 ar   
     9    4   31 1    
    10    5    7 ar   
    11    5   10 ar   
    12    5   32 1    
    13    6    7 ar   
    14    6   11 ar   
    15    6   33 1    
    16    7   14 1    
    17    8    9 ar   
    18    8   21 ar   
    19    9   22 ar   
    20   10   12 ar   
    21   10   25 1    
    22   11   12 ar   
    23   11   26 1    
    24   12   27 1    
    25   13   19 1    
    26   13   21 ar   
    27   13   22 ar   
    28   14   23 am   BACKBONE|DICT|INTERRES
    29   14   24 2    
    30   15   22 1    
    31   15   34 1    
    32   15   35 1    
    33   15   36 1    
    34   16   25 1    
    35   16   37 1    
    36   16   38 1    
    37   16   39 1    
    38   17   26 1    
    39   17   40 1    
    40   17   41 1    
    41   17   42 1    
    42   18   27 1    
    43   18   43 1    
    44   18   44 1    
    45   18   45 1    
    46   19   20 1    
    47   19   46 1    
    48   19   47 1    
    49   20   23 1    
    50   20   48 1    
    51   20   49 1    
    52   23   50 1    
@<TRIPOS>SUBSTRUCTURE
     1 UNK         1 GROUP             0       ****    0 ROOT    
@<TRIPOS>MOLECULE
ZINC02827498_113
45   47    1
SMALL
USER_CHARGES


@<TRIPOS>ATOM
      1 C1         -7.4309  -11.4641   36.5012 C.ar      1 UNK        -0.1150 
      2 C2         -7.3009  -12.1542   35.2745 C.ar      1 UNK        -0.1150 
      3 C3         -9.8743   -8.1698   38.4622 C.ar      1 UNK        -0.1150 
      4 C4         -8.9530   -6.0970   39.3304 C.ar      1 UNK        -0.1150 
      5 C5         -6.4533  -13.3616   37.7131 C.ar      1 UNK        -0.1150 
      6 C6         -9.0966   -7.4955   39.4264 C.ar      1 UNK        -0.1150 
      7 C7         -7.0061  -12.0582   37.7236 C.ar      1 UNK         0.2000 
      8 C8         -6.7432  -13.4407   35.3023 C.ar      1 UNK         0.0850 
      9 C9         -6.3341  -14.0250   36.4816 C.ar      1 UNK         0.0850 
     10 C10       -10.4661   -7.4674   37.3875 C.ar      1 UNK         0.0850 
     11 C11        -9.5484   -5.3628   38.2744 C.ar      1 UNK         0.0850 
     12 C12       -10.2905   -6.0677   37.2815 C.ar      1 UNK         0.0850 
     13 C13        -7.9721   -9.6120   40.3647 C.2       1 UNK        -0.1150 
     14 C14        -7.5602  -10.1034   39.1797 C.2       1 UNK        -0.0970 
     15 C15        -8.4346   -8.2178   40.5548 C.2       1 UNK         0.5850 
     16 C16        -5.9422  -15.4405   34.8377 C.3       1 UNK         0.2000 
     17 C17       -11.4156   -9.4860   36.4733 C.3       1 UNK         0.1100 
     18 C18        -8.7645   -3.2796   39.2169 C.3       1 UNK         0.1100 
     19 C19       -10.3210   -4.3214   35.6151 C.3       1 UNK         0.1100 
     20 N20        -7.1285  -11.4037   38.9581 N.pl3     1 UNK        -0.5717 
     21 O21        -8.2455   -7.6571   41.6330 O.2       1 UNK        -0.4700 
     22 O22        -6.5174  -14.2914   34.2700 O.3       1 UNK        -0.2850 
     23 O23        -5.8380  -15.2627   36.2276 O.3       1 UNK        -0.2850 
     24 O24       -11.2136   -8.0825   36.4028 O.3       1 UNK        -0.2850 
     25 O25        -9.4478   -3.9874   38.1923 O.3       1 UNK        -0.2850 
     26 O26       -10.9076   -5.4757   36.1964 O.3       1 UNK        -0.2850 
     27 H27        -7.8684  -10.4785   36.4793 H         1 UNK         0.1150 
     28 H28        -7.6208  -11.7088   34.3443 H         1 UNK         0.1150 
     29 H29       -10.0124   -9.2347   38.5624 H         1 UNK         0.1150 
     30 H30        -8.3736   -5.6027   40.0957 H         1 UNK         0.1150 
     31 H31        -6.1233  -13.8461   38.6197 H         1 UNK         0.1150 
     32 H32        -7.9641  -10.2345   41.2464 H         1 UNK         0.1150 
     33 H33        -7.5308   -9.4724   38.3033 H         1 UNK         0.1150 
     34 H34        -6.5686  -16.3076   34.6245 H         1 UNK         0.1000 
     35 H35        -4.9499  -15.6003   34.4139 H         1 UNK         0.1000 
     36 H36       -12.0179   -9.8044   35.6225 H         1 UNK         0.0300 
     37 H37       -11.9534   -9.7659   37.3800 H         1 UNK         0.0300 
     38 H38       -10.4709  -10.0295   36.4283 H         1 UNK         0.0300 
     39 H39        -8.8074   -2.2115   39.0036 H         1 UNK         0.0300 
     40 H40        -7.7119   -3.5621   39.2644 H         1 UNK         0.0300 
     41 H41        -9.2293   -3.4379   40.1911 H         1 UNK         0.0300 
     42 H42       -10.6438   -4.2445   34.5772 H         1 UNK         0.0300 
     43 H43        -9.2309   -4.3677   35.6165 H         1 UNK         0.0300 
     44 H44       -10.6488   -3.4143   36.1227 H         1 UNK         0.0300 
     45 H45        -6.9275  -11.9735   39.7689 H         1 UNK         0.3537 
@<TRIPOS>BOND
     1    1    2 ar   
     2    1    7 ar   
     3    1   27 1    
     4    2    8 ar   
     5    2   28 1    
     6    3    6 ar   
     7    3   10 ar   
     8    3   29 1    
     9    4    6 ar   
    10    4   11 ar   
    11    4   30 1    
    12    5    7 ar   
    13    5    9 ar   
    14    5   31 1    
    15    6   15 1    
    16    7   20 1    
    17    8    9 ar   
    18    8   22 1    
    19    9   23 1    
    20   10   12 ar   
    21   10   24 1    
    22   11   12 ar   
    23   11   25 1    
    24   12   26 1    
    25   13   14 2    
    26   13   15 1    
    27   13   32 1    
    28   14   20 1    
    29   14   33 1    
    30   15   21 2    
    31   16   22 1    
    32   16   23 1    
    33   16   34 1    
    34   16   35 1    
    35   17   24 1    
    36   17   36 1    
    37   17   37 1    
    38   17   38 1    
    39   18   25 1    
    40   18   39 1    
    41   18   40 1    
    42   18   41 1    
    43   19   26 1    
    44   19   42 1    
    45   19   43 1    
    46   19   44 1    
    47   20   45 1    
@<TRIPOS>SUBSTRUCTURE
     1 UNK         1 GROUP             0       ****    0 ROOT    
@<TRIPOS>MOLECULE
ZINC03066029_42
39   41    1
SMALL
USER_CHARGES


@<TRIPOS>ATOM
      1 C1         -3.1549   -7.3018   35.7112 C.ar      1 UNK         0.0055 
      2 C2         -4.0858   -8.2551   35.2568 C.ar      1 UNK        -0.3011 
      3 C3         -3.1705   -6.8872   37.0576 C.ar      1 UNK        -0.4461 
      4 C4         -5.0314   -8.7963   36.1481 C.ar      1 UNK        -0.1407 
      5 C5         -8.8415   -6.4160   39.3099 C.ar      1 UNK        -0.1150 
      6 C6         -6.7950   -5.1018   39.4107 C.ar      1 UNK        -0.1150 
      7 C7         -7.6778   -6.0290   39.9982 C.ar      1 UNK        -0.1150 
      8 C8         -4.1099   -7.4065   37.9736 C.ar      1 UNK         0.6314 
      9 C9         -9.0890   -5.9429   37.9999 C.ar      1 UNK         0.0850 
     10 C10        -7.0111   -4.6238   38.0959 C.ar      1 UNK         0.0850 
     11 C11        -8.1558   -5.0773   37.3819 C.ar      1 UNK         0.0850 
     12 C12        -5.0396   -8.3736   37.4902 C.ar      1 UNK        -0.1027 
     13 C13        -5.2697   -7.7225   39.8539 C.2       1 UNK         0.4683 
     14 C14        -7.3984   -6.6057   41.3351 C.2       1 UNK         0.5974 
     15 C15       -11.1995   -7.0932   37.8806 C.3       1 UNK         0.1100 
     16 C16        -4.9942   -3.3009   38.1826 C.3       1 UNK         0.1100 
     17 C17        -7.3647   -4.6649   35.1624 C.3       1 UNK         0.1100 
     18 N18        -4.2329   -7.0659   39.3162 N.2       1 UNK        -0.5991 
     19 O19        -8.1994   -6.5699   42.2668 O.2       1 UNK        -0.4300 
     20 O20       -10.1941   -6.3079   37.2583 O.3       1 UNK        -0.2850 
     21 O21        -6.1574   -3.7256   37.4870 O.3       1 UNK        -0.2850 
     22 O22        -8.4418   -4.6956   36.0884 O.3       1 UNK        -0.2850 
     23 S23        -6.0987   -8.8793   38.8014 S.3       1 UNK        -0.0839 
     24 S24        -5.8048   -7.4705   41.5126 S.3       1 UNK        -0.2049 
     25 H25        -2.4283   -6.8874   35.0261 H         1 UNK         0.1296 
     26 H26        -4.0730   -8.5712   34.2216 H         1 UNK         0.1749 
     27 H27        -2.4572   -6.1560   37.4048 H         1 UNK         0.2114 
     28 H28        -5.7508   -9.5276   35.8086 H         1 UNK         0.2050 
     29 H29        -9.5181   -7.1015   39.7981 H         1 UNK         0.1150 
     30 H30        -5.9327   -4.7943   39.9833 H         1 UNK         0.1150 
     31 H31       -12.0246   -7.2369   37.1833 H         1 UNK         0.0300 
     32 H32       -11.6002   -6.5991   38.7669 H         1 UNK         0.0300 
     33 H33       -10.8233   -8.0800   38.1529 H         1 UNK         0.0300 
     34 H34        -4.4305   -2.6143   37.5514 H         1 UNK         0.0300 
     35 H35        -4.3399   -4.1411   38.4195 H         1 UNK         0.0300 
     36 H36        -5.2497   -2.7685   39.0996 H         1 UNK         0.0300 
     37 H37        -7.7441   -4.8929   34.1667 H         1 UNK         0.0300 
     38 H38        -6.5926   -5.4008   35.3954 H         1 UNK         0.0300 
     39 H39        -6.9145   -3.6730   35.1193 H         1 UNK         0.0300 
@<TRIPOS>BOND
     1    1    2 ar   
     2    1    3 ar   
     3    1   25 1    
     4    2    4 ar   
     5    2   26 1    
     6    3    8 ar   
     7    3   27 1    
     8    4   12 ar   
     9    4   28 1    
    10    5    7 ar   
    11    5    9 ar   
    12    5   29 1    
    13    6    7 ar   
    14    6   10 ar   
    15    6   30 1    
    16    7   14 1    
    17    8   12 ar   
    18    8   18 1    
    19    9   11 ar   
    20    9   20 1    
    21   10   11 ar   
    22   10   21 1    
    23   11   22 1    
    24   12   23 1    
    25   13   18 2    
    26   13   23 1    
    27   13   24 1    
    28   14   19 2    
    29   14   24 1    
    30   15   20 1    
    31   15   31 1    
    32   15   32 1    
    33   15   33 1    
    34   16   21 1    
    35   16   34 1    
    36   16   35 1    
    37   16   36 1    
    38   17   22 1    
    39   17   37 1    
    40   17   38 1    
    41   17   39 1    
@<TRIPOS>SUBSTRUCTURE
     1 UNK         1 GROUP             0       ****    0 ROOT    
@<TRIPOS>MOLECULE
ZINC03136090_43
53   55    1
SMALL
USER_CHARGES


@<TRIPOS>ATOM
      1 C1         -6.5516   -3.9486   39.5492 C.ar      1 UNK        -0.1150 
      2 C2         -6.8848   -5.8961   38.1349 C.ar      1 UNK        -0.1150 
      3 C3         -4.6475  -10.4930   37.6475 C.ar      1 UNK        -0.1150 
      4 C4         -4.1780   -8.1192   36.2423 C.ar      1 UNK        -0.1150 
      5 C5         -6.2988   -5.3033   39.2718 C.ar      1 UNK        -0.1150 
      6 C6         -4.3969   -9.3038   38.3578 C.ar      1 UNK        -0.1150 
      7 C7         -4.1623   -8.1065   37.6474 C.ar      1 UNK        -0.1150 
      8 C8         -7.3354   -3.1673   38.6682 C.ar      1 UNK         0.0850 
      9 C9         -7.6668   -5.1388   37.2291 C.ar      1 UNK         0.0850 
     10 C10        -4.6762  -10.5170   36.2274 C.ar      1 UNK         0.0850 
     11 C11        -4.4484   -9.2977   35.5193 C.ar      1 UNK         0.0850 
     12 C12        -7.8741   -3.7528   37.4968 C.ar      1 UNK         0.0850 
     13 C13        -5.4850   -6.1224   40.2340 C.2       1 UNK         0.6150 
     14 C14        -4.4016   -9.3150   39.8852 C.3       1 UNK        -0.0050 
     15 C15        -3.9034   -6.8082   38.3966 C.3       1 UNK         0.0650 
     16 C16        -3.9005   -7.9943   40.5043 C.3       1 UNK        -0.0500 
     17 C17        -7.1412   -1.2238   40.0776 C.3       1 UNK         0.1100 
     18 C18        -7.9627   -7.0689   35.8011 C.3       1 UNK         0.1100 
     19 C19        -5.1191  -12.8945   36.2364 C.3       1 UNK         0.1100 
     20 C20        -5.0072  -10.1237   33.3040 C.3       1 UNK         0.1100 
     21 C21        -8.6872   -3.1401   35.3031 C.3       1 UNK         0.1100 
     22 N22        -4.4648   -6.8718   39.7502 N.am      1 UNK        -0.1400 
     23 O23        -5.7850   -6.1027   41.4271 O.2       1 UNK        -0.5000 
     24 O24        -7.6032   -1.8295   38.8799 O.3       1 UNK        -0.2850 
     25 O25        -8.2534   -5.7142   36.1183 O.3       1 UNK        -0.2850 
     26 O26        -4.9048  -11.6838   35.5248 O.3       1 UNK        -0.2850 
     27 O27        -4.4544   -9.1265   34.1483 O.3       1 UNK        -0.2850 
     28 O28        -8.6119   -2.8986   36.6994 O.3       1 UNK        -0.2850 
     29 H29        -6.1286   -3.5296   40.4499 H         1 UNK         0.1150 
     30 H30        -6.7222   -6.9519   37.9813 H         1 UNK         0.1150 
     31 H31        -4.8195  -11.3865   38.2263 H         1 UNK         0.1150 
     32 H32        -3.9999   -7.2045   35.6957 H         1 UNK         0.1150 
     33 H33        -5.4255   -9.5016   40.2126 H         1 UNK         0.0600 
     34 H34        -3.8002  -10.1489   40.2495 H         1 UNK         0.0600 
     35 H35        -2.8241   -6.6687   38.4702 H         1 UNK         0.0600 
     36 H36        -4.2582   -5.9548   37.8188 H         1 UNK         0.0600 
     37 H37        -4.1363   -7.9590   41.5695 H         1 UNK         0.0600 
     38 H38        -2.8127   -7.9471   40.4394 H         1 UNK         0.0600 
     39 H39        -7.4661   -0.1839   40.1019 H         1 UNK         0.0300 
     40 H40        -6.0519   -1.2293   40.1327 H         1 UNK         0.0300 
     41 H41        -7.5524   -1.7180   40.9589 H         1 UNK         0.0300 
     42 H42        -8.4651   -7.3346   34.8710 H         1 UNK         0.0300 
     43 H43        -8.3247   -7.7489   36.5734 H         1 UNK         0.0300 
     44 H44        -6.8939   -7.2247   35.6504 H         1 UNK         0.0300 
     45 H45        -5.2779  -13.7042   35.5243 H         1 UNK         0.0300 
     46 H46        -6.0069  -12.8350   36.8674 H         1 UNK         0.0300 
     47 H47        -4.2540  -13.1595   36.8459 H         1 UNK         0.0300 
     48 H48        -5.1135   -9.7175   32.2984 H         1 UNK         0.0300 
     49 H49        -5.9996  -10.4317   33.6360 H         1 UNK         0.0300 
     50 H50        -4.3523  -10.9925   33.2330 H         1 UNK         0.0300 
     51 H51        -8.9384   -2.2091   34.7956 H         1 UNK         0.0300 
     52 H52        -9.4742   -3.8572   35.0691 H         1 UNK         0.0300 
     53 H53        -7.7386   -3.4897   34.8933 H         1 UNK         0.0300 
@<TRIPOS>BOND
     1    1    5 ar   
     2    1    8 ar   
     3    1   29 1    
     4    2    5 ar   
     5    2    9 ar   
     6    2   30 1    
     7    3    6 ar   
     8    3   10 ar   
     9    3   31 1    
    10    4    7 ar   
    11    4   11 ar   
    12    4   32 1    
    13    5   13 1    
    14    6    7 ar   
    15    6   14 1    
    16    7   15 1    
    17    8   12 ar   
    18    8   24 1    
    19    9   12 ar   
    20    9   25 1    
    21   10   11 ar   
    22   10   26 1    
    23   11   27 1    
    24   12   28 1    
    25   13   22 am   BACKBONE|DICT|INTERRES
    26   13   23 2    
    27   14   16 1    
    28   14   33 1    
    29   14   34 1    
    30   15   22 1    
    31   15   35 1    
    32   15   36 1    
    33   16   22 1    
    34   16   37 1    
    35   16   38 1    
    36   17   24 1    
    37   17   39 1    
    38   17   40 1    
    39   17   41 1    
    40   18   25 1    
    41   18   42 1    
    42   18   43 1    
    43   18   44 1    
    44   19   26 1    
    45   19   45 1    
    46   19   46 1    
    47   19   47 1    
    48   20   27 1    
    49   20   48 1    
    50   20   49 1    
    51   20   50 1    
    52   21   28 1    
    53   21   51 1    
    54   21   52 1    
    55   21   53 1    
@<TRIPOS>SUBSTRUCTURE
     1 UNK         1 GROUP             0       ****    0 ROOT    
@<TRIPOS>MOLECULE
ZINC03224717_103
40   41    1
SMALL
USER_CHARGES


@<TRIPOS>ATOM
      1 C1         -7.7585  -12.9299   38.1376 C.ar      1 UNK        -0.1150 
      2 C2         -6.3796  -12.5253   36.1646 C.ar      1 UNK        -0.1150 
      3 C3         -7.5258  -14.3143   38.0119 C.ar      1 UNK        -0.1150 
      4 C4         -6.1483  -13.9095   36.0410 C.ar      1 UNK        -0.1150 
      5 C5        -10.1636   -8.1504   37.8556 C.ar      1 UNK        -0.1150 
      6 C6         -9.2916   -6.2510   39.1058 C.ar      1 UNK        -0.1150 
      7 C7         -9.2007   -7.6124   38.7404 C.ar      1 UNK        -0.1150 
      8 C8        -11.2083   -7.3450   37.3423 C.ar      1 UNK         0.0850 
      9 C9        -10.3308   -5.4283   38.6095 C.ar      1 UNK         0.0850 
     10 C10       -11.2809   -5.9877   37.7243 C.ar      1 UNK         0.0850 
     11 C11        -7.1804  -12.0329   37.2137 C.ar      1 UNK         0.1525 
     12 C12        -6.7208  -14.8039   36.9653 C.ar      1 UNK         0.1800 
     13 C13        -8.0834   -8.4322   39.2981 C.2       1 UNK         0.5850 
     14 C14       -12.1077   -9.1531   36.0303 C.3       1 UNK         0.1100 
     15 C15        -9.5449   -3.5160   39.8417 C.3       1 UNK         0.1100 
     16 C16       -11.9174   -4.3618   36.1772 C.3       1 UNK         0.1100 
     17 C17        -8.0565   -9.9360   39.0108 C.3       1 UNK         0.0475 
     18 O18        -7.1974   -7.9590   40.0093 O.2       1 UNK        -0.4700 
     19 O19       -12.1736   -7.8049   36.4697 O.3       1 UNK        -0.2850 
     20 O20       -10.4786   -4.0975   38.9443 O.3       1 UNK        -0.2850 
     21 O21       -12.3070   -5.2189   37.2373 O.3       1 UNK        -0.2850 
     22 S22        -7.4455  -10.2918   37.3332 S.3       1 UNK        -0.3200 
     23 Cl23       -6.4393  -16.4982   36.8146 Cl        1 UNK        -0.1800 
     24 H24        -8.3840  -12.5780   38.9424 H         1 UNK         0.1150 
     25 H25        -5.9393  -11.8405   35.4543 H         1 UNK         0.1150 
     26 H26        -7.9651  -15.0045   38.7172 H         1 UNK         0.1150 
     27 H27        -5.5321  -14.2858   35.2377 H         1 UNK         0.1150 
     28 H28       -10.0936   -9.1847   37.5618 H         1 UNK         0.1150 
     29 H29        -8.5486   -5.8524   39.7805 H         1 UNK         0.1150 
     30 H30       -12.9305   -9.3466   35.3422 H         1 UNK         0.0300 
     31 H31       -12.2057   -9.8497   36.8639 H         1 UNK         0.0300 
     32 H32       -11.1777   -9.3535   35.4965 H         1 UNK         0.0300 
     33 H33        -9.8038   -2.4690   39.9994 H         1 UNK         0.0300 
     34 H34        -8.5317   -3.5472   39.4390 H         1 UNK         0.0300 
     35 H35        -9.5649   -4.0103   40.8139 H         1 UNK         0.0300 
     36 H36       -12.7817   -3.7942   35.8327 H         1 UNK         0.0300 
     37 H37       -11.5350   -4.9363   35.3324 H         1 UNK         0.0300 
     38 H38       -11.1532   -3.6489   36.4878 H         1 UNK         0.0300 
     39 H39        -9.0494  -10.3596   39.1555 H         1 UNK         0.0600 
     40 H40        -7.3935  -10.4104   39.7346 H         1 UNK         0.0600 
@<TRIPOS>BOND
     1    1    3 ar   
     2    1   11 ar   
     3    1   24 1    
     4    2    4 ar   
     5    2   11 ar   
     6    2   25 1    
     7    3   12 ar   
     8    3   26 1    
     9    4   12 ar   
    10    4   27 1    
    11    5    7 ar   
    12    5    8 ar   
    13    5   28 1    
    14    6    7 ar   
    15    6    9 ar   
    16    6   29 1    
    17    7   13 1    
    18    8   10 ar   
    19    8   19 1    
    20    9   10 ar   
    21    9   20 1    
    22   10   21 1    
    23   11   22 1    
    24   12   23 1    
    25   13   17 1    
    26   13   18 2    
    27   14   19 1    
    28   14   30 1    
    29   14   31 1    
    30   14   32 1    
    31   15   20 1    
    32   15   33 1    
    33   15   34 1    
    34   15   35 1    
    35   16   21 1    
    36   16   36 1    
    37   16   37 1    
    38   16   38 1    
    39   17   22 1    
    40   17   39 1    
    41   17   40 1    
@<TRIPOS>SUBSTRUCTURE
     1 UNK         1 GROUP             0       ****    0 ROOT    
@<TRIPOS>MOLECULE
ZINC03228631_57
41   43    1
SMALL
USER_CHARGES


@<TRIPOS>ATOM
      1 C1        -12.1352  -25.1193   38.4418 C.ar      1 UNK        -0.1925 
      2 C2        -11.3968  -24.3584   37.5101 C.ar      1 UNK        -0.1228 
      3 C3        -13.3937  -24.6698   38.9009 C.ar      1 UNK        -0.3038 
      4 C4        -17.1982  -15.3385   39.1435 C.ar      1 UNK        -0.1150 
      5 C5        -11.9178  -23.1399   37.0325 C.ar      1 UNK        -0.3245 
      6 C6        -18.1336  -14.2924   39.2331 C.ar      1 UNK        -0.1150 
      7 C7        -15.1309  -22.6869   38.6548 C.2       1 UNK        -0.5146 
      8 C8        -18.2787  -16.1134   37.1178 C.ar      1 UNK        -0.1150 
      9 C9        -13.9390  -23.4505   38.4382 C.ar      1 UNK         0.2581 
     10 C10       -17.2596  -16.2632   38.0837 C.ar      1 UNK        -0.1150 
     11 C11       -13.1695  -22.7137   37.5033 C.ar      1 UNK         0.3230 
     12 C12       -19.1605  -14.1360   38.2660 C.ar      1 UNK         0.0850 
     13 C13       -19.2243  -15.0699   37.1865 C.ar      1 UNK         0.0850 
     14 C14       -15.0221  -21.5613   37.8677 C.2       1 UNK         0.1363 
     15 C15       -16.2580  -17.3642   38.0128 C.2       1 UNK         0.6250 
     16 C16       -15.9632  -20.4534   37.7142 C.2       1 UNK         0.5370 
     17 C17       -20.0297  -12.2143   39.4497 C.3       1 UNK         0.1100 
     18 C18       -21.1267  -14.0675   36.0423 C.3       1 UNK         0.1100 
     19 C19       -15.5806  -19.3037   36.7648 C.3       1 UNK         0.2380 
     20 O20       -15.3580  -17.5200   38.8401 O.2       1 UNK        -0.4300 
     21 O21       -17.0451  -20.4507   38.3056 O.2       1 UNK        -0.4700 
     22 O22       -13.8440  -21.5610   37.1595 O.3       1 UNK        -0.3115 
     23 O23       -20.0854  -13.1137   38.3516 O.3       1 UNK        -0.2850 
     24 O24       -20.1423  -15.0823   36.1526 O.3       1 UNK        -0.2850 
     25 O25       -16.4202  -18.1625   36.9380 O.3       1 UNK        -0.3300 
     26 H26       -11.7329  -26.0545   38.8076 H         1 UNK         0.1571 
     27 H27       -10.4338  -24.7101   37.1652 H         1 UNK         0.1498 
     28 H28       -13.9482  -25.2604   39.6145 H         1 UNK         0.1930 
     29 H29       -16.4299  -15.4293   39.8990 H         1 UNK         0.1150 
     30 H30       -11.3722  -22.5396   36.3212 H         1 UNK         0.1955 
     31 H31       -18.0338  -13.6184   40.0690 H         1 UNK         0.1150 
     32 H32       -15.9558  -22.9332   39.3069 H         1 UNK         0.2419 
     33 H33       -18.3554  -16.8081   36.2943 H         1 UNK         0.1150 
     34 H34       -20.1569  -12.7351   40.3997 H         1 UNK         0.0300 
     35 H35       -20.8410  -11.4919   39.3616 H         1 UNK         0.0300 
     36 H36       -19.0930  -11.6555   39.4617 H         1 UNK         0.0300 
     37 H37       -20.6754  -13.0795   35.9467 H         1 UNK         0.0300 
     38 H38       -21.8157  -14.0841   36.8873 H         1 UNK         0.0300 
     39 H39       -21.7160  -14.2420   35.1425 H         1 UNK         0.0300 
     40 H40       -15.6760  -19.6572   35.7387 H         1 UNK         0.0300 
     41 H41       -14.5346  -19.0319   36.9138 H         1 UNK         0.0300 
@<TRIPOS>BOND
     1    1    2 ar   
     2    1    3 ar   
     3    1   26 1    
     4    2    5 ar   
     5    2   27 1    
     6    3    9 ar   
     7    3   28 1    
     8    4    6 ar   
     9    4   10 ar   
    10    4   29 1    
    11    5   11 ar   
    12    5   30 1    
    13    6   12 ar   
    14    6   31 1    
    15    7    9 1    
    16    7   14 2    
    17    7   32 1    
    18    8   10 ar   
    19    8   13 ar   
    20    8   33 1    
    21    9   11 ar   
    22   10   15 1    
    23   11   22 1    
    24   12   13 ar   
    25   12   23 1    
    26   13   24 1    
    27   14   16 1    
    28   14   22 1    
    29   15   20 2    
    30   15   25 1    
    31   16   19 1    
    32   16   21 2    
    33   17   23 1    
    34   17   34 1    
    35   17   35 1    
    36   17   36 1    
    37   18   24 1    
    38   18   37 1    
    39   18   38 1    
    40   18   39 1    
    41   19   25 1    
    42   19   40 1    
    43   19   41 1    
@<TRIPOS>SUBSTRUCTURE
     1 UNK         1 GROUP             0       ****    0 ROOT    
@<TRIPOS>MOLECULE
ZINC03243529_106
43   44    1
SMALL
USER_CHARGES


@<TRIPOS>ATOM
      1 C1         -7.7183  -14.3767   37.7607 C.ar      1 UNK        -0.1150 
      2 C2         -6.4494  -13.9678   35.7188 C.ar      1 UNK        -0.1150 
      3 C3         -7.8459  -12.9881   37.9614 C.ar      1 UNK        -0.1150 
      4 C4         -6.5781  -12.5797   35.9187 C.ar      1 UNK        -0.1150 
      5 C5        -10.1342   -8.2070   37.8126 C.ar      1 UNK        -0.1150 
      6 C6         -9.2680   -6.3423   39.1180 C.ar      1 UNK        -0.1150 
      7 C7         -9.1758   -7.6933   38.7166 C.ar      1 UNK        -0.1150 
      8 C8         -7.0182  -14.8704   36.6405 C.ar      1 UNK        -0.1150 
      9 C9        -11.1757   -7.3878   37.3151 C.ar      1 UNK         0.0850 
     10 C10       -10.3046   -5.5065   38.6387 C.ar      1 UNK         0.0850 
     11 C11       -11.2503   -6.0416   37.7344 C.ar      1 UNK         0.0850 
     12 C12        -7.2726  -12.0862   37.0397 C.ar      1 UNK         0.1525 
     13 C13        -8.0619   -8.5290   39.2574 C.2       1 UNK         0.5850 
     14 C14        -6.8804  -16.3631   36.4220 C.3       1 UNK        -0.0650 
     15 C15       -12.0634   -9.1585   35.9460 C.3       1 UNK         0.1100 
     16 C16        -9.5252   -3.6283   39.9253 C.3       1 UNK         0.1100 
     17 C17       -11.8760   -4.3965   36.2076 C.3       1 UNK         0.1100 
     18 C18        -8.0375  -10.0243   38.9301 C.3       1 UNK         0.0475 
     19 O19        -7.1793   -8.0759   39.9860 O.2       1 UNK        -0.4700 
     20 O20       -12.1350   -7.8235   36.4237 O.3       1 UNK        -0.2850 
     21 O21       -10.4533   -4.1845   39.0063 O.3       1 UNK        -0.2850 
     22 O22       -12.2710   -5.2570   37.2626 O.3       1 UNK        -0.2850 
     23 S23        -7.4121  -10.3373   37.2498 S.3       1 UNK        -0.3200 
     24 H24        -8.1612  -15.0601   38.4708 H         1 UNK         0.1150 
     25 H25        -5.9126  -14.3344   34.8557 H         1 UNK         0.1150 
     26 H26        -8.3884  -12.6377   38.8244 H         1 UNK         0.1150 
     27 H27        -6.1404  -11.8911   35.2105 H         1 UNK         0.1150 
     28 H28       -10.0629   -9.2329   37.4915 H         1 UNK         0.1150 
     29 H29        -8.5276   -5.9620   39.8060 H         1 UNK         0.1150 
     30 H30        -7.6090  -16.7051   35.6865 H         1 UNK         0.0600 
     31 H31        -5.8825  -16.6083   36.0572 H         1 UNK         0.0600 
     32 H32        -7.0436  -16.9146   37.3483 H         1 UNK         0.0600 
     33 H33       -12.8742   -9.3303   35.2382 H         1 UNK         0.0300 
     34 H34       -12.1769   -9.8785   36.7574 H         1 UNK         0.0300 
     35 H35       -11.1247   -9.3460   35.4226 H         1 UNK         0.0300 
     36 H36        -9.7853   -2.5865   40.1118 H         1 UNK         0.0300 
     37 H37        -8.5095   -3.6477   39.5281 H         1 UNK         0.0300 
     38 H38        -9.5508   -4.1499   40.8829 H         1 UNK         0.0300 
     39 H39       -12.7324   -3.8088   35.8782 H         1 UNK         0.0300 
     40 H40       -11.5135   -4.9692   35.3529 H         1 UNK         0.0300 
     41 H41       -11.0945   -3.7024   36.5187 H         1 UNK         0.0300 
     42 H42        -9.0352  -10.4444   39.0510 H         1 UNK         0.0600 
     43 H43        -7.3866  -10.5243   39.6473 H         1 UNK         0.0600 
@<TRIPOS>BOND
     1    1    3 ar   
     2    1    8 ar   
     3    1   24 1    
     4    2    4 ar   
     5    2    8 ar   
     6    2   25 1    
     7    3   12 ar   
     8    3   26 1    
     9    4   12 ar   
    10    4   27 1    
    11    5    7 ar   
    12    5    9 ar   
    13    5   28 1    
    14    6    7 ar   
    15    6   10 ar   
    16    6   29 1    
    17    7   13 1    
    18    8   14 1    
    19    9   11 ar   
    20    9   20 1    
    21   10   11 ar   
    22   10   21 1    
    23   11   22 1    
    24   12   23 1    
    25   13   18 1    
    26   13   19 2    
    27   14   30 1    
    28   14   31 1    
    29   14   32 1    
    30   15   20 1    
    31   15   33 1    
    32   15   34 1    
    33   15   35 1    
    34   16   21 1    
    35   16   36 1    
    36   16   37 1    
    37   16   38 1    
    38   17   22 1    
    39   17   39 1    
    40   17   40 1    
    41   17   41 1    
    42   18   23 1    
    43   18   42 1    
    44   18   43 1    
@<TRIPOS>SUBSTRUCTURE
     1 UNK         1 GROUP             0       ****    0 ROOT    
@<TRIPOS>MOLECULE
ZINC03254134_261
47   49    1
SMALL
USER_CHARGES


@<TRIPOS>ATOM
      1 C1        -10.3697   -8.5442   38.4196 C.ar      1 UNK        -0.1150 
      2 C2         -9.4843   -6.4220   39.2194 C.ar      1 UNK        -0.1150 
      3 C3         -8.4215  -14.1781   39.3254 C.ar      1 UNK         0.6553 
      4 C4         -7.2902  -13.2196   37.0465 C.ar      1 UNK        -0.1298 
      5 C5         -9.3655   -7.8247   39.1075 C.ar      1 UNK        -0.1150 
      6 C6         -6.6721  -13.0136   35.7403 C.2       1 UNK        -0.2415 
      7 C7        -11.4773   -7.8766   37.8451 C.ar      1 UNK         0.0850 
      8 C8        -10.5871   -5.7332   38.6592 C.ar      1 UNK         0.0850 
      9 C9        -11.5739   -6.4730   37.9650 C.ar      1 UNK         0.0850 
     10 C10        -6.4636  -14.2163   35.0966 C.2       1 UNK        -0.0753 
     11 C11        -7.5189  -14.5999   37.3242 C.ar      1 UNK         0.4941 
     12 C12        -7.7159  -12.3693   38.0992 C.ar      1 UNK         0.6370 
     13 C13        -8.1773   -8.4965   39.7154 C.2       1 UNK         0.5850 
     14 C14        -6.3052  -11.6767   35.1561 C.3       1 UNK        -0.0650 
     15 C15        -5.8568  -14.4170   33.7456 C.3       1 UNK        -0.0650 
     16 C16       -12.4036   -9.9264   36.9839 C.3       1 UNK         0.1100 
     17 C17        -9.7977   -3.6095   39.4752 C.3       1 UNK         0.1100 
     18 C18       -12.3630   -5.0817   36.2553 C.3       1 UNK         0.1100 
     19 C19        -8.0958  -10.0202   39.6743 C.3       1 UNK         0.0475 
     20 N20        -8.0812  -15.1179   38.4514 N.ar      1 UNK        -0.6729 
     21 N21        -8.2806  -12.8611   39.2183 N.ar      1 UNK        -0.7329 
     22 O22        -7.2671   -7.8764   40.2648 O.2       1 UNK        -0.4700 
     23 O23       -12.4826   -8.5189   37.1509 O.3       1 UNK        -0.2850 
     24 O24       -10.7628   -4.3680   38.7618 O.3       1 UNK        -0.2850 
     25 O25       -12.6627   -5.8460   37.4124 O.3       1 UNK        -0.2850 
     26 S26        -6.9804  -15.6115   36.0013 S.3       1 UNK        -0.0428 
     27 S27        -7.5737  -10.6120   38.0360 S.3       1 UNK        -0.3200 
     28 H28       -10.2839   -9.6138   38.3241 H         1 UNK         0.1150 
     29 H29        -8.7121   -5.8857   39.7506 H         1 UNK         0.1150 
     30 H30        -8.8766  -14.5295   40.2398 H         1 UNK         0.0313 
     31 H31        -5.6015  -11.1451   35.7977 H         1 UNK         0.0600 
     32 H32        -5.8379  -11.7600   34.1753 H         1 UNK         0.0600 
     33 H33        -7.1853  -11.0439   35.0366 H         1 UNK         0.0600 
     34 H34        -4.8378  -14.0306   33.7166 H         1 UNK         0.0600 
     35 H35        -5.8183  -15.4737   33.4796 H         1 UNK         0.0600 
     36 H36        -6.4378  -13.9036   32.9791 H         1 UNK         0.0600 
     37 H37       -13.2638  -10.2678   36.4084 H         1 UNK         0.0300 
     38 H38       -12.4238  -10.4439   37.9439 H         1 UNK         0.0300 
     39 H39       -11.5059  -10.2136   36.4346 H         1 UNK         0.0300 
     40 H40       -10.0889   -2.5592   39.4649 H         1 UNK         0.0300 
     41 H41        -8.8122   -3.6817   39.0133 H         1 UNK         0.0300 
     42 H42        -9.7345   -3.9230   40.5180 H         1 UNK         0.0300 
     43 H43       -13.2924   -4.7642   35.7828 H         1 UNK         0.0300 
     44 H44       -11.8033   -5.6704   35.5270 H         1 UNK         0.0300 
     45 H45       -11.7913   -4.1848   36.4925 H         1 UNK         0.0300 
     46 H46        -9.0597  -10.4493   39.9452 H         1 UNK         0.0600 
     47 H47        -7.3773  -10.3634   40.4182 H         1 UNK         0.0600 
@<TRIPOS>BOND
     1    1    5 ar   
     2    1    7 ar   
     3    1   28 1    
     4    2    5 ar   
     5    2    8 ar   
     6    2   29 1    
     7    3   20 ar   
     8    3   21 ar   
     9    3   30 1    
    10    4    6 1    
    11    4   11 ar   
    12    4   12 ar   
    13    5   13 1    
    14    6   10 2    
    15    6   14 1    
    16    7    9 ar   
    17    7   23 1    
    18    8    9 ar   
    19    8   24 1    
    20    9   25 1    
    21   10   15 1    
    22   10   26 1    
    23   11   20 ar   
    24   11   26 1    
    25   12   21 ar   
    26   12   27 1    
    27   13   19 1    
    28   13   22 2    
    29   14   31 1    
    30   14   32 1    
    31   14   33 1    
    32   15   34 1    
    33   15   35 1    
    34   15   36 1    
    35   16   23 1    
    36   16   37 1    
    37   16   38 1    
    38   16   39 1    
    39   17   24 1    
    40   17   40 1    
    41   17   41 1    
    42   17   42 1    
    43   18   25 1    
    44   18   43 1    
    45   18   44 1    
    46   18   45 1    
    47   19   27 1    
    48   19   46 1    
    49   19   47 1    
@<TRIPOS>SUBSTRUCTURE
     1 UNK         1 GROUP             0       ****    0 ROOT    
@<TRIPOS>MOLECULE
ZINC03270296_50
51   53    1
SMALL
USER_CHARGES


@<TRIPOS>ATOM
      1 C1        -11.0804  -21.4149   35.5575 C.ar      1 UNK        -0.1150 
      2 C2        -10.4596  -20.2711   36.0959 C.ar      1 UNK        -0.1150 
      3 C3        -12.4379  -21.6727   35.8292 C.ar      1 UNK        -0.1150 
      4 C4        -12.3247  -20.1511   41.4724 C.ar      1 UNK        -0.1150 
      5 C5        -12.7737  -19.1561   42.3562 C.ar      1 UNK        -0.1150 
      6 C6        -11.1963  -19.3842   36.9048 C.ar      1 UNK        -0.1150 
      7 C7        -13.1755  -20.7865   36.6383 C.ar      1 UNK        -0.1150 
      8 C8        -12.5152  -19.9970   40.0877 C.ar      1 UNK        -0.1150 
      9 C9        -13.4141  -18.0092   41.8549 C.ar      1 UNK        -0.1150 
     10 C10       -16.4009  -14.9805   38.9717 C.ar      1 UNK        -0.1150 
     11 C11       -14.8826  -13.1729   39.5447 C.ar      1 UNK        -0.1150 
     12 C12       -15.2355  -14.5332   39.6291 C.ar      1 UNK        -0.1150 
     13 C13       -12.5570  -19.6388   37.1788 C.ar      1 UNK        -0.1150 
     14 C14       -13.1498  -18.8440   39.5660 C.ar      1 UNK        -0.1150 
     15 C15       -13.6027  -17.8379   40.4616 C.ar      1 UNK         0.0850 
     16 C16       -17.1912  -14.1010   38.2083 C.ar      1 UNK         0.0850 
     17 C17       -15.6550  -12.2688   38.7929 C.ar      1 UNK         0.0850 
     18 C18       -16.7948  -12.7388   38.0829 C.ar      1 UNK         0.0850 
     19 C19       -14.4031  -15.4713   40.4513 C.2       1 UNK         0.6150 
     20 C20       -19.4246  -13.8556   37.3422 C.3       1 UNK         0.1100 
     21 C21       -16.2167   -9.9540   38.9032 C.3       1 UNK         0.1100 
     22 C22       -16.8371  -11.7303   35.9877 C.3       1 UNK         0.1100 
     23 C23       -13.3490  -18.6821   38.0564 C.3       1 UNK         0.1100 
     24 N24       -14.2893  -16.7070   39.9364 N.am      1 UNK        -0.3850 
     25 O25       -13.8252  -15.0727   41.4604 O.2       1 UNK        -0.5000 
     26 O26       -18.2927  -14.6724   37.6060 O.3       1 UNK        -0.2850 
     27 O27       -15.2222  -10.9620   38.7738 O.3       1 UNK        -0.2850 
     28 O28       -17.4750  -11.8930   37.2451 O.3       1 UNK        -0.2850 
     29 H29       -10.5147  -22.0956   34.9378 H         1 UNK         0.1150 
     30 H30        -9.4170  -20.0749   35.8906 H         1 UNK         0.1150 
     31 H31       -12.9132  -22.5518   35.4184 H         1 UNK         0.1150 
     32 H32       -11.8351  -21.0349   41.8556 H         1 UNK         0.1150 
     33 H33       -12.6334  -19.2726   43.4211 H         1 UNK         0.1150 
     34 H34       -10.7123  -18.5123   37.3214 H         1 UNK         0.1150 
     35 H35       -14.2151  -20.9953   36.8465 H         1 UNK         0.1150 
     36 H36       -12.1621  -20.7808   39.4332 H         1 UNK         0.1150 
     37 H37       -13.7647  -17.2714   42.5621 H         1 UNK         0.1150 
     38 H38       -16.7180  -16.0095   39.0576 H         1 UNK         0.1150 
     39 H39       -14.0087  -12.8126   40.0700 H         1 UNK         0.1150 
     40 H40       -19.3196  -13.3296   36.3934 H         1 UNK         0.0300 
     41 H41       -19.6074  -13.1342   38.1400 H         1 UNK         0.0300 
     42 H42       -20.3093  -14.4872   37.2643 H         1 UNK         0.0300 
     43 H43       -17.0630  -10.2803   39.5102 H         1 UNK         0.0300 
     44 H44       -16.5820   -9.6294   37.9294 H         1 UNK         0.0300 
     45 H45       -15.7798   -9.0832   39.3914 H         1 UNK         0.0300 
     46 H46       -17.4281  -11.0609   35.3631 H         1 UNK         0.0300 
     47 H47       -16.7488  -12.6845   35.4669 H         1 UNK         0.0300 
     48 H48       -15.8410  -11.2982   36.0927 H         1 UNK         0.0300 
     49 H49       -13.0685  -17.6685   37.7668 H         1 UNK         0.0600 
     50 H50       -14.4114  -18.7857   37.8329 H         1 UNK         0.0600 
     51 H51       -14.7151  -16.8205   39.0327 H         1 UNK         0.3000 
@<TRIPOS>BOND
     1    1    2 ar   
     2    1    3 ar   
     3    1   29 1    
     4    2    6 ar   
     5    2   30 1    
     6    3    7 ar   
     7    3   31 1    
     8    4    5 ar   
     9    4    8 ar   
    10    4   32 1    
    11    5    9 ar   
    12    5   33 1    
    13    6   13 ar   
    14    6   34 1    
    15    7   13 ar   
    16    7   35 1    
    17    8   14 ar   
    18    8   36 1    
    19    9   15 ar   
    20    9   37 1    
    21   10   12 ar   
    22   10   16 ar   
    23   10   38 1    
    24   11   12 ar   
    25   11   17 ar   
    26   11   39 1    
    27   12   19 1    
    28   13   23 1    
    29   14   15 ar   
    30   14   23 1    
    31   15   24 1    
    32   16   18 ar   
    33   16   26 1    
    34   17   18 ar   
    35   17   27 1    
    36   18   28 1    
    37   19   24 am   BACKBONE|DICT|INTERRES
    38   19   25 2    
    39   20   26 1    
    40   20   40 1    
    41   20   41 1    
    42   20   42 1    
    43   21   27 1    
    44   21   43 1    
    45   21   44 1    
    46   21   45 1    
    47   22   28 1    
    48   22   46 1    
    49   22   47 1    
    50   22   48 1    
    51   23   49 1    
    52   23   50 1    
    53   24   51 1    
@<TRIPOS>SUBSTRUCTURE
     1 UNK         1 GROUP             0       ****    0 ROOT    
@<TRIPOS>MOLECULE
ZINC03276809_82
42   44    1
SMALL
USER_CHARGES


@<TRIPOS>ATOM
      1 C1         -5.4811  -11.8505   35.9014 C.ar      1 UNK        -0.1490 
      2 C2         -6.1542  -12.9940   36.3826 C.ar      1 UNK        -0.1817 
      3 C3         -5.5996  -10.6152   36.5750 C.ar      1 UNK        -0.3696 
      4 C4         -6.9522  -12.9112   37.5417 C.ar      1 UNK        -0.3290 
      5 C5         -9.4631   -7.4678   38.5874 C.ar      1 UNK        -0.1150 
      6 C6         -8.5095   -5.4532   39.5658 C.ar      1 UNK        -0.1150 
      7 C7         -8.6272   -6.8605   39.5526 C.ar      1 UNK        -0.1150 
      8 C8         -6.3915  -10.5091   37.7358 C.ar      1 UNK         0.4982 
      9 C9         -7.0628  -11.6753   38.2024 C.ar      1 UNK         0.2299 
     10 C10       -10.1713   -6.6866   37.6436 C.ar      1 UNK         0.0850 
     11 C11        -9.2189   -4.6503   38.6409 C.ar      1 UNK         0.0850 
     12 C12       -10.0443   -5.2810   37.6808 C.ar      1 UNK         0.0850 
     13 C13        -7.4667   -9.9284   39.4858 C.ar      1 UNK         0.3638 
     14 C14        -7.8584   -7.6554   40.5600 C.2       1 UNK         0.5850 
     15 C15       -11.0172   -8.6303   36.5033 C.3       1 UNK         0.1100 
     16 C16        -8.3140   -2.6185   39.5608 C.3       1 UNK         0.1100 
     17 C17        -9.9549   -4.0164   35.7205 C.3       1 UNK         0.1100 
     18 C18        -8.0818   -9.1771   40.6421 C.3       1 UNK        -0.0050 
     19 N19        -6.6576   -9.4226   38.5511 N.2       1 UNK        -0.6787 
     20 N20        -7.7391  -11.2412   39.3296 N.pl3     1 UNK        -0.6257 
     21 O21        -7.1196   -7.1307   41.3960 O.2       1 UNK        -0.4700 
     22 O22       -10.9870   -7.2204   36.6667 O.3       1 UNK        -0.2850 
     23 O23        -9.1585   -3.2713   38.6246 O.3       1 UNK        -0.2850 
     24 O24       -10.7514   -4.5331   36.7739 O.3       1 UNK        -0.2850 
     25 H25        -4.8692  -11.9202   35.0121 H         1 UNK         0.1514 
     26 H26        -6.0544  -13.9356   35.8587 H         1 UNK         0.1607 
     27 H27        -5.0862   -9.7378   36.2138 H         1 UNK         0.2091 
     28 H28        -7.4658  -13.7854   37.9112 H         1 UNK         0.1984 
     29 H29        -9.5526   -8.5404   38.5628 H         1 UNK         0.1150 
     30 H30        -7.8665   -5.0024   40.3068 H         1 UNK         0.1150 
     31 H31       -11.6507   -8.8794   35.6521 H         1 UNK         0.0300 
     32 H32       -11.4368   -9.1243   37.3805 H         1 UNK         0.0300 
     33 H33       -10.0225   -9.0310   36.3015 H         1 UNK         0.0300 
     34 H34        -8.3724   -1.5412   39.4061 H         1 UNK         0.0300 
     35 H35        -7.2720   -2.9137   39.4303 H         1 UNK         0.0300 
     36 H36        -8.6228   -2.8206   40.5873 H         1 UNK         0.0300 
     37 H37       -10.5923   -3.4981   35.0044 H         1 UNK         0.0300 
     38 H38        -9.4395   -4.8187   35.1903 H         1 UNK         0.0300 
     39 H39        -9.2121   -3.3042   36.0802 H         1 UNK         0.0300 
     40 H40        -9.1510   -9.3796   40.6875 H         1 UNK         0.0600 
     41 H41        -7.6417   -9.5416   41.5699 H         1 UNK         0.0600 
     42 H42        -8.3131  -11.7952   39.9448 H         1 UNK         0.4072 
@<TRIPOS>BOND
     1    1    2 ar   
     2    1    3 ar   
     3    1   25 1    
     4    2    4 ar   
     5    2   26 1    
     6    3    8 ar   
     7    3   27 1    
     8    4    9 ar   
     9    4   28 1    
    10    5    7 ar   
    11    5   10 ar   
    12    5   29 1    
    13    6    7 ar   
    14    6   11 ar   
    15    6   30 1    
    16    7   14 1    
    17    8    9 ar   
    18    8   19 ar   
    19    9   20 ar   
    20   10   12 ar   
    21   10   22 1    
    22   11   12 ar   
    23   11   23 1    
    24   12   24 1    
    25   13   18 1    
    26   13   19 ar   
    27   13   20 ar   
    28   14   18 1    
    29   14   21 2    
    30   15   22 1    
    31   15   31 1    
    32   15   32 1    
    33   15   33 1    
    34   16   23 1    
    35   16   34 1    
    36   16   35 1    
    37   16   36 1    
    38   17   24 1    
    39   17   37 1    
    40   17   38 1    
    41   17   39 1    
    42   18   40 1    
    43   18   41 1    
    44   20   42 1    
@<TRIPOS>SUBSTRUCTURE
     1 UNK         1 GROUP             0       ****    0 ROOT    
@<TRIPOS>MOLECULE
ZINC03280803_2
45   48    1
SMALL
USER_CHARGES


@<TRIPOS>ATOM
      1 C1         -4.5442   -8.8413   35.4625 C.ar      1 UNK         0.0055 
      2 C2         -3.4642   -9.7076   35.7193 C.ar      1 UNK        -0.3011 
      3 C3         -5.6190   -8.7659   36.3705 C.ar      1 UNK        -0.4461 
      4 C4         -3.4561  -10.4965   36.8855 C.ar      1 UNK        -0.1407 
      5 C5         -6.8048   -4.2592   39.4037 C.ar      1 UNK        -0.1150 
      6 C6         -8.0577   -6.1821   38.5794 C.ar      1 UNK        -0.1150 
      7 C7         -7.1183   -5.6308   39.4750 C.ar      1 UNK         0.0000 
      8 C8         -5.6380   -9.5453   37.5457 C.ar      1 UNK         0.6314 
      9 C9         -7.4238   -3.4294   38.4385 C.ar      1 UNK         0.0850 
     10 C10        -8.6839   -5.3734   37.6023 C.ar      1 UNK         0.0850 
     11 C11        -8.3563   -3.9984   37.5418 C.ar      1 UNK         0.0850 
     12 C12        -4.5329  -10.4113   37.7871 C.ar      1 UNK        -0.1027 
     13 C13        -6.4674   -6.4766   40.4687 C.2       1 UNK         0.5614 
     14 C14        -6.3032  -10.3950   39.5053 C.2       1 UNK         0.2008 
     15 C15        -6.1152   -8.2109   41.6042 C.2       1 UNK         0.7139 
     16 C16        -6.2354   -1.4814   39.1993 C.3       1 UNK         0.1100 
     17 C17        -9.9788   -7.2206   36.7631 C.3       1 UNK         0.1100 
     18 C18        -8.3951   -3.2853   35.3226 C.3       1 UNK         0.1100 
     19 C19        -7.1657  -10.5680   40.7156 C.3       1 UNK         0.1625 
     20 N20        -6.6354   -9.5562   38.5142 N.2       1 UNK        -0.5991 
     21 N21        -5.3220   -6.2608   41.1242 N.2       1 UNK        -0.3751 
     22 N22        -5.0919   -7.3978   41.8677 N.2       1 UNK        -0.3751 
     23 O23        -7.0448   -7.6645   40.7844 O.3       1 UNK        -0.3726 
     24 O24        -7.1635   -2.0808   38.3075 O.3       1 UNK        -0.2850 
     25 O25        -9.6055   -5.8522   36.6932 O.3       1 UNK        -0.2850 
     26 O26        -8.9640   -3.1891   36.6171 O.3       1 UNK        -0.2850 
     27 S27        -4.7752  -11.2648   39.3079 S.3       1 UNK        -0.0839 
     28 S28        -6.3718   -9.8506   42.1884 S.3       1 UNK        -0.3200 
     29 H29        -4.5485   -8.2327   34.5688 H         1 UNK         0.1296 
     30 H30        -2.6391   -9.7635   35.0214 H         1 UNK         0.1749 
     31 H31        -6.4447   -8.0996   36.1749 H         1 UNK         0.2114 
     32 H32        -2.6306  -11.1607   37.0954 H         1 UNK         0.2050 
     33 H33        -6.0808   -3.8667   40.1018 H         1 UNK         0.1150 
     34 H34        -8.2740   -7.2370   38.6502 H         1 UNK         0.1150 
     35 H35        -6.1544   -0.4185   38.9718 H         1 UNK         0.0300 
     36 H36        -5.2412   -1.9174   39.0928 H         1 UNK         0.0300 
     37 H37        -6.5618   -1.5715   40.2363 H         1 UNK         0.0300 
     38 H38       -10.7195   -7.4297   35.9913 H         1 UNK         0.0300 
     39 H39       -10.4305   -7.4616   37.7263 H         1 UNK         0.0300 
     40 H40        -9.1264   -7.8785   36.5878 H         1 UNK         0.0300 
     41 H41        -8.9152   -2.6074   34.6462 H         1 UNK         0.0300 
     42 H42        -8.4799   -4.2933   34.9154 H         1 UNK         0.0300 
     43 H43        -7.3418   -3.0018   35.3371 H         1 UNK         0.0300 
     44 H44        -8.1364  -10.0990   40.5515 H         1 UNK         0.0600 
     45 H45        -7.3405  -11.6306   40.8814 H         1 UNK         0.0600 
@<TRIPOS>BOND
     1    1    2 ar   
     2    1    3 ar   
     3    1   29 1    
     4    2    4 ar   
     5    2   30 1    
     6    3    8 ar   
     7    3   31 1    
     8    4   12 ar   
     9    4   32 1    
    10    5    7 ar   
    11    5    9 ar   
    12    5   33 1    
    13    6    7 ar   
    14    6   10 ar   
    15    6   34 1    
    16    7   13 1    
    17    8   12 ar   
    18    8   20 1    
    19    9   11 ar   
    20    9   24 1    
    21   10   11 ar   
    22   10   25 1    
    23   11   26 1    
    24   12   27 1    
    25   13   21 2    
    26   13   23 1    
    27   14   19 1    
    28   14   20 2    
    29   14   27 1    
    30   15   22 2    
    31   15   23 1    
    32   15   28 1    
    33   16   24 1    
    34   16   35 1    
    35   16   36 1    
    36   16   37 1    
    37   17   25 1    
    38   17   38 1    
    39   17   39 1    
    40   17   40 1    
    41   18   26 1    
    42   18   41 1    
    43   18   42 1    
    44   18   43 1    
    45   19   28 1    
    46   19   44 1    
    47   19   45 1    
    48   21   22 1    
@<TRIPOS>SUBSTRUCTURE
     1 UNK         1 GROUP             0       ****    0 ROOT    
@<TRIPOS>MOLECULE
ZINC03326261_108
48   50    1
SMALL
USER_CHARGES


@<TRIPOS>ATOM
      1 C1         -9.7294  -19.8837   38.1864 C.ar      1 UNK        -0.2222 
      2 C2         -9.5025  -21.2471   37.9153 C.ar      1 UNK        -0.0888 
      3 C3        -11.0457  -19.3847   38.2754 C.ar      1 UNK        -0.2243 
      4 C4        -10.5952  -22.1157   37.7328 C.ar      1 UNK        -0.3541 
      5 C5        -16.5051  -14.3027   38.2406 C.ar      1 UNK        -0.1150 
      6 C6        -14.4503  -13.0094   38.1721 C.ar      1 UNK        -0.1150 
      7 C7        -14.1532  -21.2669   37.8694 C.ar      1 UNK        -0.1072 
      8 C8        -12.1632  -20.2327   38.0946 C.ar      1 UNK         0.1233 
      9 C9        -15.0981  -14.2590   38.1484 C.ar      1 UNK        -0.1150 
     10 C10       -13.5890  -20.0406   38.1141 C.ar      1 UNK        -0.1749 
     11 C11       -11.9027  -21.6073   37.8232 C.ar      1 UNK         0.2860 
     12 C12       -17.2680  -13.1222   38.3162 C.ar      1 UNK         0.0850 
     13 C13       -15.1844  -11.8121   38.2525 C.ar      1 UNK         0.0850 
     14 C14       -16.6061  -11.8614   38.2806 C.ar      1 UNK         0.0850 
     15 C15       -14.2854  -15.5167   38.0745 C.2       1 UNK         0.6150 
     16 C16       -19.4169  -12.3255   39.0504 C.3       1 UNK         0.1100 
     17 C17       -14.8811   -9.6245   39.1569 C.3       1 UNK         0.1100 
     18 C18       -17.4530  -10.1996   36.8953 C.3       1 UNK         0.1100 
     19 C19       -14.3104  -18.7512   38.3531 C.3       1 UNK        -0.0641 
     20 C20       -14.2019  -17.8085   37.1435 C.3       1 UNK         0.0800 
     21 N21       -13.1426  -22.1988   37.6942 N.pl3     1 UNK        -0.4786 
     22 N22       -14.8467  -16.5263   37.3979 N.am      1 UNK        -0.5000 
     23 O23       -13.1554  -15.5749   38.5540 O.2       1 UNK        -0.5000 
     24 O24       -18.6336  -13.3048   38.3834 O.3       1 UNK        -0.2850 
     25 O25       -14.4519  -10.6461   38.2663 O.3       1 UNK        -0.2850 
     26 O26       -17.3317  -10.6995   38.2182 O.3       1 UNK        -0.2850 
     27 H27        -8.8913  -19.2152   38.3288 H         1 UNK         0.1489 
     28 H28        -8.4911  -21.6236   37.8493 H         1 UNK         0.1359 
     29 H29       -11.2107  -18.3374   38.4860 H         1 UNK         0.1699 
     30 H30       -10.4270  -23.1612   37.5258 H         1 UNK         0.1796 
     31 H31       -17.0221  -15.2506   38.2674 H         1 UNK         0.1150 
     32 H32       -13.3705  -12.9661   38.1335 H         1 UNK         0.1150 
     33 H33       -15.1956  -21.5491   37.8062 H         1 UNK         0.1929 
     34 H34       -20.3507  -12.7809   39.3798 H         1 UNK         0.0300 
     35 H35       -19.6772  -11.5045   38.3826 H         1 UNK         0.0300 
     36 H36       -18.9161  -11.9299   39.9356 H         1 UNK         0.0300 
     37 H37       -15.5703   -8.9371   38.6672 H         1 UNK         0.0300 
     38 H38       -14.0163   -9.0434   39.4758 H         1 UNK         0.0300 
     39 H39       -15.3551  -10.0262   40.0542 H         1 UNK         0.0300 
     40 H40       -18.0373   -9.2798   36.9037 H         1 UNK         0.0300 
     41 H41       -17.9647  -10.9169   36.2521 H         1 UNK         0.0300 
     42 H42       -16.4794   -9.9740   36.4581 H         1 UNK         0.0300 
     43 H43       -13.8915  -18.2662   39.2363 H         1 UNK         0.0600 
     44 H44       -15.3592  -18.9408   38.5836 H         1 UNK         0.0600 
     45 H45       -13.1541  -17.6434   36.8834 H         1 UNK         0.0600 
     46 H46       -14.6651  -18.2675   36.2696 H         1 UNK         0.0600 
     47 H47       -13.3085  -23.1757   37.5045 H         1 UNK         0.3577 
     48 H48       -15.7547  -16.3623   36.9939 H         1 UNK         0.3000 
@<TRIPOS>BOND
     1    1    2 ar   
     2    1    3 ar   
     3    1   27 1    
     4    2    4 ar   
     5    2   28 1    
     6    3    8 ar   
     7    3   29 1    
     8    4   11 ar   
     9    4   30 1    
    10    5    9 ar   
    11    5   12 ar   
    12    5   31 1    
    13    6    9 ar   
    14    6   13 ar   
    15    6   32 1    
    16    7   10 ar   
    17    7   21 ar   
    18    7   33 1    
    19    8   10 ar   
    20    8   11 ar   
    21    9   15 1    
    22   10   19 1    
    23   11   21 ar   
    24   12   14 ar   
    25   12   24 1    
    26   13   14 ar   
    27   13   25 1    
    28   14   26 1    
    29   15   22 am   BACKBONE|DICT|INTERRES
    30   15   23 2    
    31   16   24 1    
    32   16   34 1    
    33   16   35 1    
    34   16   36 1    
    35   17   25 1    
    36   17   37 1    
    37   17   38 1    
    38   17   39 1    
    39   18   26 1    
    40   18   40 1    
    41   18   41 1    
    42   18   42 1    
    43   19   20 1    
    44   19   43 1    
    45   19   44 1    
    46   20   22 1    
    47   20   45 1    
    48   20   46 1    
    49   21   47 1    
    50   22   48 1    
@<TRIPOS>SUBSTRUCTURE
     1 UNK         1 GROUP             0       ****    0 ROOT    
@<TRIPOS>MOLECULE
ZINC03398328_117
38   39    1
SMALL
USER_CHARGES


@<TRIPOS>ATOM
      1 C1         -6.5836  -13.7062   35.4123 C.ar      1 UNK        -0.1150 
      2 C2         -7.2474  -14.5981   36.2752 C.ar      1 UNK        -0.1150 
      3 C3         -6.5176  -12.3374   35.7333 C.ar      1 UNK        -0.1150 
      4 C4         -7.8450  -14.1209   37.4584 C.ar      1 UNK        -0.1150 
      5 C5         -7.1146  -11.8594   36.9167 C.ar      1 UNK        -0.1150 
      6 C6         -9.4958   -6.7199   39.1875 C.ar      1 UNK        -0.1150 
      7 C7        -10.2265   -6.0072   38.2196 C.ar      1 UNK        -0.1150 
      8 C8        -10.3787   -8.8088   38.3133 C.ar      1 UNK        -0.1150 
      9 C9         -7.7853  -12.7483   37.7925 C.ar      1 UNK        -0.1150 
     10 C10        -9.5631   -8.1280   39.2483 C.ar      1 UNK        -0.1150 
     11 C11       -11.0399   -6.6904   37.2834 C.ar      1 UNK         0.0850 
     12 C12       -11.1126   -8.1010   37.3288 C.ar      1 UNK         0.0850 
     13 C13        -8.7650   -8.8460   40.2887 C.2       1 UNK         0.5370 
     14 C14        -8.4343  -12.2762   39.0488 C.2       1 UNK         0.6250 
     15 C15       -11.7255   -4.6391   36.2302 C.3       1 UNK         0.1100 
     16 C16       -11.9587  -10.1342   36.3492 C.3       1 UNK         0.1100 
     17 C17        -8.8931  -10.3663   40.3873 C.3       1 UNK         0.2380 
     18 O18        -8.0193   -8.2658   41.0777 O.2       1 UNK        -0.4700 
     19 O19        -9.0639  -13.0096   39.8120 O.2       1 UNK        -0.4300 
     20 O20       -11.7792   -6.0553   36.3069 O.3       1 UNK        -0.2850 
     21 O21       -11.9131   -8.7156   36.3876 O.3       1 UNK        -0.2850 
     22 O22        -8.2826  -10.9633   39.2539 O.3       1 UNK        -0.3300 
     23 H23        -6.1253  -14.0718   34.5045 H         1 UNK         0.1150 
     24 H24        -7.2988  -15.6492   36.0300 H         1 UNK         0.1150 
     25 H25        -6.0085  -11.6522   35.0707 H         1 UNK         0.1150 
     26 H26        -8.3524  -14.8173   38.1120 H         1 UNK         0.1150 
     27 H27        -7.0499  -10.8036   37.1380 H         1 UNK         0.1150 
     28 H28        -8.8784   -6.1737   39.8880 H         1 UNK         0.1150 
     29 H29       -10.1421   -4.9317   38.2155 H         1 UNK         0.1150 
     30 H30       -10.4389   -9.8835   38.3460 H         1 UNK         0.1150 
     31 H31       -12.3584   -4.3002   35.4102 H         1 UNK         0.0300 
     32 H32       -10.7121   -4.2888   36.0298 H         1 UNK         0.0300 
     33 H33       -12.0961   -4.1757   37.1455 H         1 UNK         0.0300 
     34 H34       -12.6025  -10.4501   35.5285 H         1 UNK         0.0300 
     35 H35       -12.3757  -10.5443   37.2699 H         1 UNK         0.0300 
     36 H36       -10.9704  -10.5624   36.1751 H         1 UNK         0.0300 
     37 H37        -9.9477  -10.6366   40.4555 H         1 UNK         0.0300 
     38 H38        -8.4047  -10.7162   41.2976 H         1 UNK         0.0300 
@<TRIPOS>BOND
     1    1    2 ar   
     2    1    3 ar   
     3    1   23 1    
     4    2    4 ar   
     5    2   24 1    
     6    3    5 ar   
     7    3   25 1    
     8    4    9 ar   
     9    4   26 1    
    10    5    9 ar   
    11    5   27 1    
    12    6    7 ar   
    13    6   10 ar   
    14    6   28 1    
    15    7   11 ar   
    16    7   29 1    
    17    8   10 ar   
    18    8   12 ar   
    19    8   30 1    
    20    9   14 1    
    21   10   13 1    
    22   11   12 ar   
    23   11   20 1    
    24   12   21 1    
    25   13   17 1    
    26   13   18 2    
    27   14   19 2    
    28   14   22 1    
    29   15   20 1    
    30   15   31 1    
    31   15   32 1    
    32   15   33 1    
    33   16   21 1    
    34   16   34 1    
    35   16   35 1    
    36   16   36 1    
    37   17   22 1    
    38   17   37 1    
    39   17   38 1    
@<TRIPOS>SUBSTRUCTURE
     1 UNK         1 GROUP             0       ****    0 ROOT    
@<TRIPOS>MOLECULE
ZINC03452274_200
45   47    1
SMALL
USER_CHARGES


@<TRIPOS>ATOM
      1 C1         -3.4784  -10.1824   35.0937 C.ar      1 UNK        -0.1150 
      2 C2         -2.8207  -10.9129   36.1011 C.ar      1 UNK        -0.1150 
      3 C3         -4.5457   -9.3298   35.4318 C.ar      1 UNK        -0.1150 
      4 C4         -3.2306  -10.7899   37.4434 C.ar      1 UNK        -0.1150 
      5 C5         -4.9533   -9.2094   36.7748 C.ar      1 UNK        -0.1150 
      6 C6         -6.7662   -3.9359   39.4394 C.ar      1 UNK        -0.1150 
      7 C7         -8.3827   -5.5795   38.6556 C.ar      1 UNK        -0.1150 
      8 C8         -4.2450  -10.3332   40.3615 C.2       1 UNK         0.1690 
      9 C9         -4.3009   -9.9374   37.7954 C.ar      1 UNK         0.0000 
     10 C10        -7.3387   -5.2214   39.5383 C.ar      1 UNK        -0.1150 
     11 C11        -8.2814   -3.3761   37.6134 C.ar      1 UNK        -0.1150 
     12 C12        -7.2281   -3.0030   38.4806 C.ar      1 UNK         0.0850 
     13 C13        -8.8590   -4.6651   37.6854 C.ar      1 UNK         0.0850 
     14 C14        -4.7263   -9.8115   39.1865 C.2       1 UNK         0.0330 
     15 C15        -5.9566   -9.1045   40.8193 C.2       1 UNK         0.4390 
     16 C16        -6.8158   -6.1678   40.5629 C.2       1 UNK         0.6250 
     17 C17        -8.7896   -2.3849   36.5773 C.3       1 UNK        -0.0650 
     18 C18        -5.6348   -1.3434   39.1924 C.3       1 UNK         0.1100 
     19 C19       -10.4429   -6.2606   36.8189 C.3       1 UNK         0.1100 
     20 C20        -7.0734   -8.3595   41.4864 C.3       1 UNK         0.3050 
     21 N21        -5.0455   -9.8806   41.4019 N.2       1 UNK        -0.5900 
     22 O22        -5.8538   -5.9198   41.2906 O.2       1 UNK        -0.4300 
     23 O23        -5.8196   -9.0354   39.4666 O.3       1 UNK        -0.2570 
     24 O24        -6.6995   -1.7359   38.3384 O.3       1 UNK        -0.2850 
     25 O25        -9.8655   -4.9638   36.7892 O.3       1 UNK        -0.2850 
     26 O26        -7.5069   -7.3200   40.6183 O.3       1 UNK        -0.3300 
     27 H27        -3.1644  -10.2749   34.0638 H         1 UNK         0.1150 
     28 H28        -2.0006  -11.5680   35.8448 H         1 UNK         0.1150 
     29 H29        -5.0523   -8.7654   34.6622 H         1 UNK         0.1150 
     30 H30        -2.7141  -11.3585   38.2027 H         1 UNK         0.1150 
     31 H31        -5.7727   -8.5485   37.0183 H         1 UNK         0.1150 
     32 H32        -5.9640   -3.6825   40.1163 H         1 UNK         0.1150 
     33 H33        -8.8095   -6.5672   38.7268 H         1 UNK         0.1150 
     34 H34        -3.4019  -10.9857   40.5367 H         1 UNK         0.0910 
     35 H35        -8.2475   -2.5168   35.6413 H         1 UNK         0.0600 
     36 H36        -9.8525   -2.5240   36.3812 H         1 UNK         0.0600 
     37 H37        -8.6588   -1.3546   36.9076 H         1 UNK         0.0600 
     38 H38        -5.3376   -0.3234   38.9492 H         1 UNK         0.0300 
     39 H39        -4.7604   -1.9817   39.0586 H         1 UNK         0.0300 
     40 H40        -5.9376   -1.3563   40.2403 H         1 UNK         0.0300 
     41 H41       -11.2064   -6.3309   36.0443 H         1 UNK         0.0300 
     42 H42       -10.9262   -6.4601   37.7762 H         1 UNK         0.0300 
     43 H43        -9.6994   -7.0331   36.6185 H         1 UNK         0.0300 
     44 H44        -7.8980   -9.0480   41.6674 H         1 UNK         0.0300 
     45 H45        -6.7426   -7.9755   42.4525 H         1 UNK         0.0300 
@<TRIPOS>BOND
     1    1    2 ar   
     2    1    3 ar   
     3    1   27 1    
     4    2    4 ar   
     5    2   28 1    
     6    3    5 ar   
     7    3   29 1    
     8    4    9 ar   
     9    4   30 1    
    10    5    9 ar   
    11    5   31 1    
    12    6   10 ar   
    13    6   12 ar   
    14    6   32 1    
    15    7   10 ar   
    16    7   13 ar   
    17    7   33 1    
    18    8   14 2    
    19    8   21 1    
    20    8   34 1    
    21    9   14 1    
    22   10   16 1    
    23   11   12 ar   
    24   11   13 ar   
    25   11   17 1    
    26   12   24 1    
    27   13   25 1    
    28   14   23 1    
    29   15   20 1    
    30   15   21 2    
    31   15   23 1    
    32   16   22 2    
    33   16   26 1    
    34   17   35 1    
    35   17   36 1    
    36   17   37 1    
    37   18   24 1    
    38   18   38 1    
    39   18   39 1    
    40   18   40 1    
    41   19   25 1    
    42   19   41 1    
    43   19   42 1    
    44   19   43 1    
    45   20   26 1    
    46   20   44 1    
    47   20   45 1    
@<TRIPOS>SUBSTRUCTURE
     1 UNK         1 GROUP             0       ****    0 ROOT    
@<TRIPOS>MOLECULE
ZINC03453403_258
46   47    1
SMALL
USER_CHARGES


@<TRIPOS>ATOM
      1 C1         -7.0675   -4.4436   39.0442 C.ar      1 UNK        -0.1150 
      2 C2         -7.2753   -6.5095   37.7865 C.ar      1 UNK        -0.1150 
      3 C3         -6.8961   -5.8417   38.9696 C.ar      1 UNK        -0.1150 
      4 C4         -7.6096   -3.6990   37.9635 C.ar      1 UNK         0.0850 
      5 C5         -7.9989   -4.3929   36.7768 C.ar      1 UNK         0.0850 
      6 C6         -7.8120   -5.7925   36.7064 C.ar      1 UNK         0.1800 
      7 C7         -6.3068   -6.5733   40.1253 C.2       1 UNK         0.6250 
      8 C8         -4.9942   -9.9598   40.0644 C.2       1 UNK         0.5000 
      9 C9         -6.1420  -10.7466   36.0936 C.3       1 UNK        -0.1200 
     10 C10        -5.0030   -9.8143   35.6517 C.3       1 UNK        -0.1200 
     11 C11        -5.5778  -11.6088   37.2301 C.3       1 UNK        -0.1200 
     12 C12        -3.8066  -10.1313   36.5600 C.3       1 UNK        -0.1200 
     13 C13        -4.3975  -10.8140   37.7958 C.3       1 UNK         0.1400 
     14 C14        -6.6424   -9.2553   41.8696 C.3       1 UNK        -0.1800 
     15 C15        -7.3475   -1.6370   39.2046 C.3       1 UNK         0.1100 
     16 C16        -9.1361   -2.5299   35.7046 C.3       1 UNK         0.1100 
     17 C17        -5.6023   -8.7780   40.8392 C.3       1 UNK         0.2200 
     18 N18        -4.8657   -9.8091   38.7394 N.am      1 UNK        -0.5000 
     19 O19        -5.9302   -6.0255   41.1606 O.2       1 UNK        -0.4300 
     20 O20        -4.6588  -10.9869   40.6501 O.2       1 UNK        -0.5000 
     21 O21        -7.7457   -2.3259   38.0271 O.3       1 UNK        -0.2850 
     22 O22        -8.5385   -3.8150   35.6415 O.3       1 UNK        -0.2850 
     23 O23        -6.2197   -7.8947   39.9008 O.3       1 UNK        -0.3300 
     24 Cl24       -8.2467   -6.6668   35.2804 Cl        1 UNK        -0.1800 
     25 H25        -6.7609   -3.9543   39.9567 H         1 UNK         0.1150 
     26 H26        -7.1628   -7.5785   37.6824 H         1 UNK         0.1150 
     27 H27        -6.9834  -10.1541   36.4559 H         1 UNK         0.0600 
     28 H28        -6.5113  -11.3610   35.2715 H         1 UNK         0.0600 
     29 H29        -4.7492   -9.9538   34.5999 H         1 UNK         0.0600 
     30 H30        -5.3084   -8.7739   35.7733 H         1 UNK         0.0600 
     31 H31        -6.3262  -11.8632   37.9822 H         1 UNK         0.0600 
     32 H32        -5.2078  -12.5491   36.8191 H         1 UNK         0.0600 
     33 H33        -3.1477  -10.8357   36.0492 H         1 UNK         0.0600 
     34 H34        -3.2075   -9.2507   36.7963 H         1 UNK         0.0600 
     35 H35        -3.6640  -11.4663   38.2755 H         1 UNK         0.0600 
     36 H36        -7.4646   -9.7838   41.3863 H         1 UNK         0.0600 
     37 H37        -7.0608   -8.4168   42.4260 H         1 UNK         0.0600 
     38 H38        -6.1926   -9.9350   42.5946 H         1 UNK         0.0600 
     39 H39        -7.5323   -0.5708   39.0744 H         1 UNK         0.0300 
     40 H40        -6.2818   -1.7630   39.4006 H         1 UNK         0.0300 
     41 H41        -7.9197   -1.9647   40.0736 H         1 UNK         0.0300 
     42 H42        -9.7329   -2.3728   34.8063 H         1 UNK         0.0300 
     43 H43        -8.3816   -1.7432   35.7301 H         1 UNK         0.0300 
     44 H44        -9.8051   -2.4316   36.5605 H         1 UNK         0.0300 
     45 H45        -4.7740   -8.2875   41.3548 H         1 UNK         0.0300 
     46 H46        -5.1933   -8.9341   38.3613 H         1 UNK         0.3000 
@<TRIPOS>BOND
     1    1    3 ar   
     2    1    4 ar   
     3    1   25 1    
     4    2    3 ar   
     5    2    6 ar   
     6    2   26 1    
     7    3    7 1    
     8    4    5 ar   
     9    4   21 1    
    10    5    6 ar   
    11    5   22 1    
    12    6   24 1    
    13    7   19 2    
    14    7   23 1    
    15    8   17 1    
    16    8   18 am   BACKBONE|DICT|INTERRES
    17    8   20 2    
    18    9   10 1    
    19    9   11 1    
    20    9   27 1    
    21    9   28 1    
    22   10   12 1    
    23   10   29 1    
    24   10   30 1    
    25   11   13 1    
    26   11   31 1    
    27   11   32 1    
    28   12   13 1    
    29   12   33 1    
    30   12   34 1    
    31   13   18 1    
    32   13   35 1    
    33   14   17 1    
    34   14   36 1    
    35   14   37 1    
    36   14   38 1    
    37   15   21 1    
    38   15   39 1    
    39   15   40 1    
    40   15   41 1    
    41   16   22 1    
    42   16   42 1    
    43   16   43 1    
    44   16   44 1    
    45   17   23 1    
    46   17   45 1    
    47   18   46 1    
@<TRIPOS>SUBSTRUCTURE
     1 UNK         1 GROUP             0       ****    0 ROOT    
@<TRIPOS>MOLECULE
ZINC03457218_297
51   54    1
SMALL
USER_CHARGES


@<TRIPOS>ATOM
      1 C1         -9.3936   -6.8209   39.9310 C.ar      1 UNK        -0.1150 
      2 C2         -9.3946   -5.8060   38.9601 C.ar      1 UNK        -0.1150 
      3 C3        -10.3685   -8.3468   38.3114 C.ar      1 UNK        -0.1150 
      4 C4         -7.7846  -13.5049   38.0496 C.ar      1 UNK        -0.0677 
      5 C5         -9.9106   -8.0943   39.6246 C.ar      1 UNK        -0.1150 
      6 C6         -7.0194  -13.8577   36.8912 C.2       1 UNK        -0.0677 
      7 C7         -9.8963   -6.0318   37.6639 C.ar      1 UNK         0.0850 
      8 C8        -10.3724   -7.3319   37.3173 C.ar      1 UNK         0.0850 
      9 C9         -7.1990  -12.9551   35.8722 C.2       1 UNK        -0.1787 
     10 C10        -8.5240  -12.3654   37.8963 C.ar      1 UNK        -0.0329 
     11 C11        -7.8745  -14.1909   39.3674 C.ar      1 UNK         0.6150 
     12 C12        -9.4208  -12.3908   39.9629 C.ar      1 UNK         0.4890 
     13 C13        -9.8880   -9.1496   40.6748 C.2       1 UNK         0.5850 
     14 C14        -6.0933  -15.0384   36.7491 C.3       1 UNK        -0.0050 
     15 C15        -6.5474  -13.0220   34.5309 C.3       1 UNK        -0.0050 
     16 C16        -5.6643  -15.2876   35.2872 C.3       1 UNK        -0.1200 
     17 C17        -5.3444  -13.9816   34.5330 C.3       1 UNK        -0.1200 
     18 C18        -8.8346  -14.1850   41.6200 C.3       1 UNK        -0.1100 
     19 C19       -10.6457   -4.8835   35.6634 C.3       1 UNK         0.1100 
     20 C20       -11.1956   -8.8896   35.6577 C.3       1 UNK         0.1100 
     21 C21       -11.0250  -10.1823   40.6821 C.3       1 UNK         0.0475 
     22 N22        -9.3579  -11.7763   38.8132 N.2       1 UNK        -0.3898 
     23 N23        -8.6971  -13.5889   40.2751 N.pl3     1 UNK        -0.1925 
     24 O24        -7.2428  -15.2250   39.5978 O.2       1 UNK        -0.5000 
     25 O25        -9.0505   -9.1695   41.5774 O.2       1 UNK        -0.4700 
     26 O26        -9.8429   -4.9302   36.8325 O.3       1 UNK        -0.2850 
     27 O27       -10.8025   -7.5759   36.0278 O.3       1 UNK        -0.2850 
     28 S28        -8.2900  -11.6702   36.3172 S.3       1 UNK         0.0328 
     29 S29       -10.4809  -11.7926   41.3343 S.3       1 UNK        -0.1750 
     30 H30        -9.0012   -6.6131   40.9173 H         1 UNK         0.1150 
     31 H31        -9.0084   -4.8291   39.2126 H         1 UNK         0.1150 
     32 H32       -10.6921   -9.3435   38.0623 H         1 UNK         0.1150 
     33 H33        -5.2043  -14.8669   37.3570 H         1 UNK         0.0600 
     34 H34        -6.5559  -15.9431   37.1449 H         1 UNK         0.0600 
     35 H35        -7.2826  -13.3622   33.8009 H         1 UNK         0.0600 
     36 H36        -6.2330  -12.0275   34.2127 H         1 UNK         0.0600 
     37 H37        -4.8148  -15.9705   35.2581 H         1 UNK         0.0600 
     38 H38        -6.4787  -15.7916   34.7650 H         1 UNK         0.0600 
     39 H39        -5.0257  -14.1900   33.5112 H         1 UNK         0.0600 
     40 H40        -4.5016  -13.4950   35.0258 H         1 UNK         0.0600 
     41 H41        -8.5249  -13.4787   42.3916 H         1 UNK         0.0600 
     42 H42        -8.2284  -15.0783   41.7765 H         1 UNK         0.0600 
     43 H43        -9.8655  -14.4864   41.8086 H         1 UNK         0.0600 
     44 H44       -10.6831   -3.8572   35.2994 H         1 UNK         0.0300 
     45 H45       -11.6718   -5.1958   35.8617 H         1 UNK         0.0300 
     46 H46       -10.2203   -5.4927   34.8657 H         1 UNK         0.0300 
     47 H47       -11.4755   -8.8959   34.6044 H         1 UNK         0.0300 
     48 H48       -12.0618   -9.2257   36.2291 H         1 UNK         0.0300 
     49 H49       -10.3784   -9.6001   35.7822 H         1 UNK         0.0300 
     50 H50       -11.4600  -10.3263   39.6963 H         1 UNK         0.0600 
     51 H51       -11.8171   -9.8003   41.3247 H         1 UNK         0.0600 
@<TRIPOS>BOND
     1    1    2 ar   
     2    1    5 ar   
     3    1   30 1    
     4    2    7 ar   
     5    2   31 1    
     6    3    5 ar   
     7    3    8 ar   
     8    3   32 1    
     9    4    6 1    
    10    4   10 ar   
    11    4   11 ar   
    12    5   13 1    
    13    6    9 2    
    14    6   14 1    
    15    7    8 ar   
    16    7   26 1    
    17    8   27 1    
    18    9   15 1    
    19    9   28 1    
    20   10   22 ar   
    21   10   28 1    
    22   11   23 ar   
    23   11   24 2    
    24   12   22 ar   
    25   12   23 ar   
    26   12   29 1    
    27   13   21 1    
    28   13   25 2    
    29   14   16 1    
    30   14   33 1    
    31   14   34 1    
    32   15   17 1    
    33   15   35 1    
    34   15   36 1    
    35   16   17 1    
    36   16   37 1    
    37   16   38 1    
    38   17   39 1    
    39   17   40 1    
    40   18   23 1    
    41   18   41 1    
    42   18   42 1    
    43   18   43 1    
    44   19   26 1    
    45   19   44 1    
    46   19   45 1    
    47   19   46 1    
    48   20   27 1    
    49   20   47 1    
    50   20   48 1    
    51   20   49 1    
    52   21   29 1    
    53   21   50 1    
    54   21   51 1    
@<TRIPOS>SUBSTRUCTURE
     1 UNK         1 GROUP             0       ****    0 ROOT    
@<TRIPOS>MOLECULE
ZINC03510078_178
38   39    1
SMALL
USER_CHARGES


@<TRIPOS>ATOM
      1 C1        -10.5669   -8.7279   38.2742 C.ar      1 UNK        -0.1150 
      2 C2         -7.8883  -14.1335   37.4824 C.ar      1 UNK        -0.1150 
      3 C3         -7.1425  -11.8635   37.0004 C.ar      1 UNK        -0.1150 
      4 C4        -11.2379   -7.9504   37.3159 C.ar      1 UNK        -0.1150 
      5 C5         -7.2010  -14.6009   36.3442 C.ar      1 UNK        -0.1150 
      6 C6         -6.4549  -12.3339   35.8632 C.ar      1 UNK        -0.1150 
      7 C7         -9.6612   -6.6967   39.2484 C.ar      1 UNK        -0.1150 
      8 C8         -7.8683  -12.7608   37.8229 C.ar      1 UNK        -0.1150 
      9 C9         -9.7656   -8.1054   39.2549 C.ar      1 UNK        -0.1150 
     10 C10       -11.1338   -6.5462   37.2991 C.ar      1 UNK         0.0850 
     11 C11       -10.3372   -5.8962   38.2898 C.ar      1 UNK         0.0850 
     12 C12        -6.4847  -13.7013   35.5344 C.ar      1 UNK         0.2200 
     13 C13        -9.0235   -8.8825   40.2936 C.2       1 UNK         0.5370 
     14 C14        -8.6130  -12.2987   39.0302 C.2       1 UNK         0.6250 
     15 C15       -11.6912   -4.5602   36.0094 C.3       1 UNK         0.1100 
     16 C16        -9.4779   -3.8776   39.3107 C.3       1 UNK         0.1100 
     17 C17        -9.1995  -10.4004   40.3316 C.3       1 UNK         0.2380 
     18 O18        -8.2863   -8.3540   41.1259 O.2       1 UNK        -0.4700 
     19 O19        -9.2607  -13.0481   39.7615 O.2       1 UNK        -0.4300 
     20 O20       -11.8546   -5.9418   36.2866 O.3       1 UNK        -0.2850 
     21 O21       -10.2487   -4.5181   38.3036 O.3       1 UNK        -0.2850 
     22 O22        -8.5189  -10.9800   39.2296 O.3       1 UNK        -0.3300 
     23 F23        -5.8259  -14.1500   34.4410 F         1 UNK        -0.2200 
     24 H24       -10.6806   -9.8007   38.2278 H         1 UNK         0.1150 
     25 H25        -8.4352  -14.8376   38.0944 H         1 UNK         0.1150 
     26 H26        -7.1030  -10.8079   37.2277 H         1 UNK         0.1150 
     27 H27       -11.8454   -8.4380   36.5674 H         1 UNK         0.1150 
     28 H28        -7.2216  -15.6500   36.0883 H         1 UNK         0.1150 
     29 H29        -5.9025  -11.6476   35.2384 H         1 UNK         0.1150 
     30 H30        -9.0450   -6.2412   40.0085 H         1 UNK         0.1150 
     31 H31       -12.2313   -4.3159   35.0950 H         1 UNK         0.0300 
     32 H32       -10.6441   -4.3024   35.8457 H         1 UNK         0.0300 
     33 H33       -12.1081   -3.9416   36.8046 H         1 UNK         0.0300 
     34 H34        -9.5357   -2.7981   39.1722 H         1 UNK         0.0300 
     35 H35        -8.4261   -4.1597   39.2491 H         1 UNK         0.0300 
     36 H36        -9.8581   -4.1001   40.3087 H         1 UNK         0.0300 
     37 H37       -10.2616  -10.6480   40.3113 H         1 UNK         0.0300 
     38 H38        -8.7900  -10.7881   41.2655 H         1 UNK         0.0300 
@<TRIPOS>BOND
     1    1    4 ar   
     2    1    9 ar   
     3    1   24 1    
     4    2    5 ar   
     5    2    8 ar   
     6    2   25 1    
     7    3    6 ar   
     8    3    8 ar   
     9    3   26 1    
    10    4   10 ar   
    11    4   27 1    
    12    5   12 ar   
    13    5   28 1    
    14    6   12 ar   
    15    6   29 1    
    16    7    9 ar   
    17    7   11 ar   
    18    7   30 1    
    19    8   14 1    
    20    9   13 1    
    21   10   11 ar   
    22   10   20 1    
    23   11   21 1    
    24   12   23 1    
    25   13   17 1    
    26   13   18 2    
    27   14   19 2    
    28   14   22 1    
    29   15   20 1    
    30   15   31 1    
    31   15   32 1    
    32   15   33 1    
    33   16   21 1    
    34   16   34 1    
    35   16   35 1    
    36   16   36 1    
    37   17   22 1    
    38   17   37 1    
    39   17   38 1    
@<TRIPOS>SUBSTRUCTURE
     1 UNK         1 GROUP             0       ****    0 ROOT    
@<TRIPOS>MOLECULE
ZINC03537783_178
42   44    1
SMALL
USER_CHARGES


@<TRIPOS>ATOM
      1 C1        -11.0062   -8.4914   38.3812 C.ar      1 UNK        -0.1150 
      2 C2         -9.7794   -6.6007   39.3069 C.ar      1 UNK        -0.1150 
      3 C3         -9.9772   -7.9955   39.2151 C.ar      1 UNK        -0.1150 
      4 C4        -11.8339   -7.6079   37.6481 C.ar      1 UNK         0.0850 
      5 C5        -10.5949   -5.6985   38.5824 C.ar      1 UNK         0.0850 
      6 C6        -11.6162   -6.2164   37.7512 C.ar      1 UNK         0.0850 
      7 C7         -8.8356  -13.5168   39.5116 C.ar      1 UNK        -0.1717 
      8 C8         -7.0125  -14.9499   36.6318 C.2       1 UNK        -0.1882 
      9 C9         -6.0918  -14.3822   35.8494 C.2       1 UNK        -0.1075 
     10 C10        -8.2737  -12.2862   39.4884 C.ar      1 UNK         0.0535 
     11 C11        -8.4516  -14.5301   38.5316 C.ar      1 UNK         0.5567 
     12 C12        -6.9503  -12.8358   37.6549 C.ar      1 UNK         0.4890 
     13 C13        -9.0986   -8.9049   40.0056 C.2       1 UNK         0.6250 
     14 C14       -13.1312   -9.4138   36.7251 C.3       1 UNK         0.1100 
     15 C15        -9.4435   -3.7841   39.4798 C.3       1 UNK         0.1100 
     16 C16       -11.8250   -4.7885   35.9125 C.3       1 UNK         0.1100 
     17 C17        -8.6525  -11.2137   40.4870 C.3       1 UNK         0.2590 
     18 N18        -7.3070  -11.9533   38.5332 N.2       1 UNK        -0.4815 
     19 N19        -7.5078  -14.1244   37.6381 N.pl3     1 UNK        -0.0493 
     20 O20        -8.9437  -15.6597   38.5177 O.2       1 UNK        -0.5000 
     21 O21        -8.1961   -8.5020   40.7412 O.2       1 UNK        -0.4300 
     22 O22       -12.8533   -8.0247   36.8161 O.3       1 UNK        -0.2850 
     23 O23       -10.4590   -4.3264   38.6490 O.3       1 UNK        -0.2850 
     24 O24       -12.4388   -5.3712   37.0501 O.3       1 UNK        -0.2850 
     25 O25        -9.4078  -10.2031   39.8402 O.3       1 UNK        -0.3300 
     26 S26        -5.7386  -12.7225   36.2957 S.3       1 UNK        -0.0150 
     27 H27       -11.1548   -9.5572   38.3095 H         1 UNK         0.1150 
     28 H28        -8.9929   -6.2387   39.9517 H         1 UNK         0.1150 
     29 H29        -9.5822  -13.7655   40.2514 H         1 UNK         0.1150 
     30 H30        -7.4001  -15.9580   36.5639 H         1 UNK         0.1150 
     31 H31        -5.5864  -14.8500   35.0166 H         1 UNK         0.1150 
     32 H32       -13.9743   -9.5667   36.0513 H         1 UNK         0.0300 
     33 H33       -13.4057   -9.8302   37.6952 H         1 UNK         0.0300 
     34 H34       -12.2820   -9.9654   36.3198 H         1 UNK         0.0300 
     35 H35        -9.4729   -2.6963   39.4181 H         1 UNK         0.0300 
     36 H36        -8.4517   -4.1053   39.1587 H         1 UNK         0.0300 
     37 H37        -9.5932   -4.0583   40.5250 H         1 UNK         0.0300 
     38 H38       -12.5669   -4.2172   35.3551 H         1 UNK         0.0300 
     39 H39       -11.4245   -5.5547   35.2471 H         1 UNK         0.0300 
     40 H40       -11.0194   -4.1075   36.1859 H         1 UNK         0.0300 
     41 H41        -7.7363  -10.8330   40.9412 H         1 UNK         0.0300 
     42 H42        -9.2506  -11.6433   41.2911 H         1 UNK         0.0300 
@<TRIPOS>BOND
     1    1    3 ar   
     2    1    4 ar   
     3    1   27 1    
     4    2    3 ar   
     5    2    5 ar   
     6    2   28 1    
     7    3   13 1    
     8    4    6 ar   
     9    4   22 1    
    10    5    6 ar   
    11    5   23 1    
    12    6   24 1    
    13    7   10 ar   
    14    7   11 ar   
    15    7   29 1    
    16    8    9 2    
    17    8   19 1    
    18    8   30 1    
    19    9   26 1    
    20    9   31 1    
    21   10   17 1    
    22   10   18 ar   
    23   11   19 ar   
    24   11   20 2    
    25   12   18 ar   
    26   12   19 ar   
    27   12   26 1    
    28   13   21 2    
    29   13   25 1    
    30   14   22 1    
    31   14   32 1    
    32   14   33 1    
    33   14   34 1    
    34   15   23 1    
    35   15   35 1    
    36   15   36 1    
    37   15   37 1    
    38   16   24 1    
    39   16   38 1    
    40   16   39 1    
    41   16   40 1    
    42   17   25 1    
    43   17   41 1    
    44   17   42 1    
@<TRIPOS>SUBSTRUCTURE
     1 UNK         1 GROUP             0       ****    0 ROOT    
@<TRIPOS>MOLECULE
ZINC03561134_125
48   50    1
SMALL
USER_CHARGES


@<TRIPOS>ATOM
      1 C1         -2.6591   -8.6039   35.4597 C.ar      1 UNK        -0.1150 
      2 C2         -2.0823   -8.3086   36.7162 C.ar      1 UNK        -0.1150 
      3 C3         -4.0349   -8.8991   35.3589 C.ar      1 UNK        -0.1150 
      4 C4         -2.8719   -8.3026   37.8870 C.ar      1 UNK        -0.1150 
      5 C5         -8.9119   -6.2525   39.9148 C.ar      1 UNK        -0.1150 
      6 C6         -6.7503   -5.5868   39.0279 C.ar      1 UNK        -0.1150 
      7 C7         -4.8048   -8.8894   36.5347 C.ar      1 UNK        -0.1150 
      8 C8         -7.5150   -6.1858   40.0450 C.ar      1 UNK        -0.1150 
      9 C9         -4.2493   -8.5974   37.7768 C.ar      1 UNK        -0.0383 
     10 C10        -9.5488   -5.7408   38.7596 C.ar      1 UNK         0.0850 
     11 C11        -7.3544   -5.0954   37.8446 C.ar      1 UNK         0.0850 
     12 C12        -8.7745   -5.1786   37.7151 C.ar      1 UNK         0.0850 
     13 C13        -5.1158   -8.2858   40.0814 C.2       1 UNK         0.5000 
     14 C14        -6.2744   -9.1627   36.6463 C.3       1 UNK        -0.0050 
     15 C15        -6.5310   -9.0607   38.1653 C.3       1 UNK        -0.0500 
     16 C16       -11.7362   -6.2596   39.6268 C.3       1 UNK         0.1100 
     17 C17        -5.1876   -4.6937   36.8550 C.3       1 UNK         0.1100 
     18 C18        -8.8830   -4.5684   35.3656 C.3       1 UNK         0.1100 
     19 C19        -6.8274   -6.7985   41.2546 C.3       1 UNK        -0.0050 
     20 C20        -6.3514   -8.2435   40.9948 C.3       1 UNK        -0.1200 
     21 N21        -5.2559   -8.6458   38.7783 N.am      1 UNK        -0.0317 
     22 O22        -4.0423   -7.9649   40.5899 O.2       1 UNK        -0.5000 
     23 O23       -10.9164   -5.7802   38.5723 O.3       1 UNK        -0.2850 
     24 O24        -6.6001   -4.5313   36.8346 O.3       1 UNK        -0.2850 
     25 O25        -9.5075   -4.7373   36.6278 O.3       1 UNK        -0.2850 
     26 H26        -2.0427   -8.6049   34.5724 H         1 UNK         0.1150 
     27 H27        -1.0272   -8.0861   36.7833 H         1 UNK         0.1150 
     28 H28        -4.4832   -9.1252   34.4024 H         1 UNK         0.1150 
     29 H29        -2.4075   -8.0763   38.8351 H         1 UNK         0.1150 
     30 H30        -9.4789   -6.7123   40.7091 H         1 UNK         0.1150 
     31 H31        -5.6816   -5.5370   39.1697 H         1 UNK         0.1150 
     32 H32        -6.8365   -8.4093   36.0926 H         1 UNK         0.0600 
     33 H33        -6.5201  -10.1490   36.2517 H         1 UNK         0.0600 
     34 H34        -7.3345   -8.3512   38.3597 H         1 UNK         0.0600 
     35 H35        -6.8281  -10.0308   38.5654 H         1 UNK         0.0600 
     36 H36       -12.7827   -6.1683   39.3364 H         1 UNK         0.0300 
     37 H37       -11.5964   -5.6773   40.5386 H         1 UNK         0.0300 
     38 H38       -11.5431   -7.3128   39.8344 H         1 UNK         0.0300 
     39 H39        -4.7696   -4.3109   35.9242 H         1 UNK         0.0300 
     40 H40        -4.9037   -5.7444   36.9329 H         1 UNK         0.0300 
     41 H41        -4.7328   -4.1326   37.6722 H         1 UNK         0.0300 
     42 H42        -9.6523   -4.5058   34.5963 H         1 UNK         0.0300 
     43 H43        -8.2379   -5.4112   35.1131 H         1 UNK         0.0300 
     44 H44        -8.3131   -3.6399   35.3265 H         1 UNK         0.0300 
     45 H45        -7.5140   -6.7870   42.1017 H         1 UNK         0.0600 
     46 H46        -5.9863   -6.1676   41.5490 H         1 UNK         0.0600 
     47 H47        -6.0437   -8.6801   41.9453 H         1 UNK         0.0600 
     48 H48        -7.1687   -8.8707   40.6436 H         1 UNK         0.0600 
@<TRIPOS>BOND
     1    1    2 ar   
     2    1    3 ar   
     3    1   26 1    
     4    2    4 ar   
     5    2   27 1    
     6    3    7 ar   
     7    3   28 1    
     8    4    9 ar   
     9    4   29 1    
    10    5    8 ar   
    11    5   10 ar   
    12    5   30 1    
    13    6    8 ar   
    14    6   11 ar   
    15    6   31 1    
    16    7    9 ar   
    17    7   14 1    
    18    8   19 1    
    19    9   21 1    
    20   10   12 ar   
    21   10   23 1    
    22   11   12 ar   
    23   11   24 1    
    24   12   25 1    
    25   13   20 1    
    26   13   21 am   BACKBONE|DICT|INTERRES
    27   13   22 2    
    28   14   15 1    
    29   14   32 1    
    30   14   33 1    
    31   15   21 1    
    32   15   34 1    
    33   15   35 1    
    34   16   23 1    
    35   16   36 1    
    36   16   37 1    
    37   16   38 1    
    38   17   24 1    
    39   17   39 1    
    40   17   40 1    
    41   17   41 1    
    42   18   25 1    
    43   18   42 1    
    44   18   43 1    
    45   18   44 1    
    46   19   20 1    
    47   19   45 1    
    48   19   46 1    
    49   20   47 1    
    50   20   48 1    
@<TRIPOS>SUBSTRUCTURE
     1 UNK         1 GROUP             0       ****    0 ROOT    
@<TRIPOS>MOLECULE
ZINC03848414_13
45   48    1
SMALL
USER_CHARGES


@<TRIPOS>ATOM
      1 C1         -4.8224  -11.1770   35.1231 C.ar      1 UNK        -0.1150 
      2 C2         -5.0798  -11.9475   36.2725 C.ar      1 UNK        -0.1150 
      3 C3         -4.6685   -9.7822   35.2321 C.ar      1 UNK        -0.1150 
      4 C4         -5.1804  -11.3255   37.5327 C.ar      1 UNK        -0.1150 
      5 C5         -4.7686   -9.1578   36.4906 C.ar      1 UNK        -0.1150 
      6 C6         -6.9957   -3.9629   39.6024 C.ar      1 UNK        -0.1150 
      7 C7         -7.7628   -5.9702   38.4580 C.ar      1 UNK        -0.1150 
      8 C8         -7.0276   -5.3697   39.5021 C.ar      1 UNK         0.0000 
      9 C9         -5.0188   -9.9252   37.6535 C.ar      1 UNK         0.0044 
     10 C10        -7.6811   -3.1522   38.6666 C.ar      1 UNK         0.0850 
     11 C11        -8.4452   -5.1810   37.5019 C.ar      1 UNK         0.0850 
     12 C12        -8.3944   -3.7727   37.6172 C.ar      1 UNK         0.0850 
     13 C13        -6.2945   -6.1777   40.4823 C.ar      1 UNK         0.4100 
     14 C14        -5.1294   -7.6523   41.4404 C.ar      1 UNK         0.5625 
     15 C15        -5.1412   -9.2619   38.9803 C.2       1 UNK         0.3492 
     16 C16        -4.8229  -10.0344   40.2655 C.3       1 UNK         0.0836 
     17 C17        -7.0277   -1.1254   39.7831 C.3       1 UNK         0.1100 
     18 C18        -9.2020   -7.1201   36.2943 C.3       1 UNK         0.1100 
     19 C19        -8.3406   -2.7773   35.5129 C.3       1 UNK         0.1100 
     20 N20        -6.1708   -5.7991   41.7628 N.2       1 UNK        -0.3633 
     21 N21        -5.4087   -6.7641   42.3892 N.2       1 UNK        -0.3633 
     22 N22        -5.5317   -8.0465   39.0320 N.2       1 UNK        -0.3897 
     23 N23        -5.6567   -7.3482   40.2403 N.pl3     1 UNK        -0.0934 
     24 O24        -7.6877   -1.7728   38.7057 O.3       1 UNK        -0.2850 
     25 O25        -9.1678   -5.7092   36.4512 O.3       1 UNK        -0.2850 
     26 O26        -9.0631   -2.9883   36.7136 O.3       1 UNK        -0.2850 
     27 S27        -4.1490   -9.0876   41.6645 S.3       1 UNK        -0.3200 
     28 H28        -4.7465  -11.6552   34.1567 H         1 UNK         0.1150 
     29 H29        -5.2038  -13.0176   36.1855 H         1 UNK         0.1150 
     30 H30        -4.4737   -9.1895   34.3494 H         1 UNK         0.1150 
     31 H31        -5.3927  -11.9395   38.3957 H         1 UNK         0.1150 
     32 H32        -4.6481   -8.0851   36.5559 H         1 UNK         0.1150 
     33 H33        -6.4327   -3.5254   40.4127 H         1 UNK         0.1150 
     34 H34        -7.7986   -7.0457   38.4085 H         1 UNK         0.1150 
     35 H35        -5.7397  -10.5186   40.6019 H         1 UNK         0.0600 
     36 H36        -4.1104  -10.8292   40.0460 H         1 UNK         0.0600 
     37 H37        -7.1545   -0.0474   39.6854 H         1 UNK         0.0300 
     38 H38        -5.9570   -1.3329   39.7763 H         1 UNK         0.0300 
     39 H39        -7.4486   -1.4200   40.7456 H         1 UNK         0.0300 
     40 H40        -9.7878   -7.3689   35.4095 H         1 UNK         0.0300 
     41 H41        -9.6756   -7.6043   37.1494 H         1 UNK         0.0300 
     42 H42        -8.2015   -7.5314   36.1526 H         1 UNK         0.0300 
     43 H43        -8.9125   -2.1243   34.8542 H         1 UNK         0.0300 
     44 H44        -8.1599   -3.7132   34.9830 H         1 UNK         0.0300 
     45 H45        -7.3812   -2.2970   35.7111 H         1 UNK         0.0300 
@<TRIPOS>BOND
     1    1    2 ar   
     2    1    3 ar   
     3    1   28 1    
     4    2    4 ar   
     5    2   29 1    
     6    3    5 ar   
     7    3   30 1    
     8    4    9 ar   
     9    4   31 1    
    10    5    9 ar   
    11    5   32 1    
    12    6    8 ar   
    13    6   10 ar   
    14    6   33 1    
    15    7    8 ar   
    16    7   11 ar   
    17    7   34 1    
    18    8   13 1    
    19    9   15 1    
    20   10   12 ar   
    21   10   24 1    
    22   11   12 ar   
    23   11   25 1    
    24   12   26 1    
    25   13   20 ar   
    26   13   23 ar   
    27   14   21 ar   
    28   14   23 ar   
    29   14   27 1    
    30   15   16 1    
    31   15   22 2    
    32   16   27 1    
    33   16   35 1    
    34   16   36 1    
    35   17   24 1    
    36   17   37 1    
    37   17   38 1    
    38   17   39 1    
    39   18   25 1    
    40   18   40 1    
    41   18   41 1    
    42   18   42 1    
    43   19   26 1    
    44   19   43 1    
    45   19   44 1    
    46   19   45 1    
    47   20   21 ar   
    48   22   23 1    
@<TRIPOS>SUBSTRUCTURE
     1 UNK         1 GROUP             0       ****    0 ROOT    
@<TRIPOS>MOLECULE
ZINC03888473_71
45   47    1
SMALL
USER_CHARGES


@<TRIPOS>ATOM
      1 C1         -9.5681  -15.7977   35.7511 C.ar      1 UNK        -0.1490 
      2 C2         -8.7343  -16.0056   36.8703 C.ar      1 UNK        -0.1817 
      3 C3        -10.7949  -15.1143   35.8925 C.ar      1 UNK        -0.3696 
      4 C4         -9.1222  -15.5299   38.1393 C.ar      1 UNK        -0.3290 
      5 C5        -13.1293  -10.6908   37.7844 C.ar      1 UNK        -0.1150 
      6 C6        -12.1966   -9.2722   39.5188 C.ar      1 UNK        -0.1150 
      7 C7        -12.6727  -10.5359   39.1100 C.ar      1 UNK        -0.1150 
      8 C8        -11.2010  -14.6301   37.1533 C.ar      1 UNK         0.4982 
      9 C9        -10.3468  -14.8484   38.2719 C.ar      1 UNK         0.2299 
     10 C10       -13.1077   -9.6073   36.8761 C.ar      1 UNK         0.0850 
     11 C11       -12.1737   -8.1646   38.6350 C.ar      1 UNK         0.0850 
     12 C12       -12.6553   -8.3384   37.3055 C.ar      1 UNK         0.0850 
     13 C13       -12.1560  -13.7449   38.8296 C.ar      1 UNK         0.3638 
     14 C14       -12.6711  -11.6602   40.0954 C.2       1 UNK         0.5850 
     15 C15       -10.5572  -14.2386   40.7268 C.3       1 UNK        -0.0575 
     16 C16       -13.8117  -11.0043   35.0442 C.3       1 UNK         0.1100 
     17 C17       -11.1473   -6.7705   40.3229 C.3       1 UNK         0.1100 
     18 C18       -12.9551   -6.0095   36.7636 C.3       1 UNK         0.1100 
     19 C19       -13.1868  -13.0424   39.6697 C.3       1 UNK        -0.0050 
     20 N20       -12.3421  -13.9461   37.5228 N.2       1 UNK        -0.6787 
     21 N21       -11.0140  -14.2689   39.3468 N.pl3     1 UNK        -0.3410 
     22 O22       -12.3024  -11.5143   41.2626 O.2       1 UNK        -0.4700 
     23 O23       -13.5276   -9.7136   35.5652 O.3       1 UNK        -0.2850 
     24 O24       -11.6751   -6.9331   39.0140 O.3       1 UNK        -0.2850 
     25 O25       -12.6855   -7.3406   36.3510 O.3       1 UNK        -0.2850 
     26 H26        -9.2651  -16.1637   34.7794 H         1 UNK         0.1514 
     27 H27        -7.7948  -16.5296   36.7521 H         1 UNK         0.1607 
     28 H28       -11.4348  -14.9531   35.0392 H         1 UNK         0.2091 
     29 H29        -8.4879  -15.6836   38.9982 H         1 UNK         0.1984 
     30 H30       -13.4993  -11.6473   37.4571 H         1 UNK         0.1150 
     31 H31       -11.8413   -9.1734   40.5332 H         1 UNK         0.1150 
     32 H32       -10.0853  -13.2781   40.9378 H         1 UNK         0.0600 
     33 H33       -11.3933  -14.3849   41.4108 H         1 UNK         0.0600 
     34 H34        -9.8309  -15.0324   40.9023 H         1 UNK         0.0600 
     35 H35       -14.0259  -10.9215   33.9789 H         1 UNK         0.0300 
     36 H36       -14.6885  -11.4428   35.5220 H         1 UNK         0.0300 
     37 H37       -12.9618  -11.6796   35.1572 H         1 UNK         0.0300 
     38 H38       -10.7882   -5.7481   40.4393 H         1 UNK         0.0300 
     39 H39       -10.3013   -7.4368   40.4984 H         1 UNK         0.0300 
     40 H40       -11.9089   -6.9391   41.0858 H         1 UNK         0.0300 
     41 H41       -13.3912   -5.4606   35.9292 H         1 UNK         0.0300 
     42 H42       -12.0381   -5.4926   37.0462 H         1 UNK         0.0300 
     43 H43       -13.6663   -5.9684   37.5900 H         1 UNK         0.0300 
     44 H44       -14.1186  -12.9446   39.1144 H         1 UNK         0.0600 
     45 H45       -13.4037  -13.6406   40.5537 H         1 UNK         0.0600 
@<TRIPOS>BOND
     1    1    2 ar   
     2    1    3 ar   
     3    1   26 1    
     4    2    4 ar   
     5    2   27 1    
     6    3    8 ar   
     7    3   28 1    
     8    4    9 ar   
     9    4   29 1    
    10    5    7 ar   
    11    5   10 ar   
    12    5   30 1    
    13    6    7 ar   
    14    6   11 ar   
    15    6   31 1    
    16    7   14 1    
    17    8    9 ar   
    18    8   20 ar   
    19    9   21 ar   
    20   10   12 ar   
    21   10   23 1    
    22   11   12 ar   
    23   11   24 1    
    24   12   25 1    
    25   13   19 1    
    26   13   20 ar   
    27   13   21 ar   
    28   14   19 1    
    29   14   22 2    
    30   15   21 1    
    31   15   32 1    
    32   15   33 1    
    33   15   34 1    
    34   16   23 1    
    35   16   35 1    
    36   16   36 1    
    37   16   37 1    
    38   17   24 1    
    39   17   38 1    
    40   17   39 1    
    41   17   40 1    
    42   18   25 1    
    43   18   41 1    
    44   18   42 1    
    45   18   43 1    
    46   19   44 1    
    47   19   45 1    
@<TRIPOS>SUBSTRUCTURE
     1 UNK         1 GROUP             0       ****    0 ROOT    
@<TRIPOS>MOLECULE
ZINC03888473_71
45   47    1
SMALL
USER_CHARGES


@<TRIPOS>ATOM
      1 C1         -9.5681  -15.7977   35.7511 C.ar      1 UNK        -0.1490 
      2 C2         -8.7343  -16.0056   36.8703 C.ar      1 UNK        -0.1817 
      3 C3        -10.7949  -15.1143   35.8925 C.ar      1 UNK        -0.3696 
      4 C4         -9.1222  -15.5299   38.1393 C.ar      1 UNK        -0.3290 
      5 C5        -13.1293  -10.6908   37.7844 C.ar      1 UNK        -0.1150 
      6 C6        -12.1966   -9.2722   39.5188 C.ar      1 UNK        -0.1150 
      7 C7        -12.6727  -10.5359   39.1100 C.ar      1 UNK        -0.1150 
      8 C8        -11.2010  -14.6301   37.1533 C.ar      1 UNK         0.4982 
      9 C9        -10.3468  -14.8484   38.2719 C.ar      1 UNK         0.2299 
     10 C10       -13.1077   -9.6073   36.8761 C.ar      1 UNK         0.0850 
     11 C11       -12.1737   -8.1646   38.6350 C.ar      1 UNK         0.0850 
     12 C12       -12.6553   -8.3384   37.3055 C.ar      1 UNK         0.0850 
     13 C13       -12.1560  -13.7449   38.8296 C.ar      1 UNK         0.3638 
     14 C14       -12.6711  -11.6602   40.0954 C.2       1 UNK         0.5850 
     15 C15       -10.5572  -14.2386   40.7268 C.3       1 UNK        -0.0575 
     16 C16       -13.8117  -11.0043   35.0442 C.3       1 UNK         0.1100 
     17 C17       -11.1473   -6.7705   40.3229 C.3       1 UNK         0.1100 
     18 C18       -12.9551   -6.0095   36.7636 C.3       1 UNK         0.1100 
     19 C19       -13.1868  -13.0424   39.6697 C.3       1 UNK        -0.0050 
     20 N20       -12.3421  -13.9461   37.5228 N.2       1 UNK        -0.6787 
     21 N21       -11.0140  -14.2689   39.3468 N.pl3     1 UNK        -0.3410 
     22 O22       -12.3024  -11.5143   41.2626 O.2       1 UNK        -0.4700 
     23 O23       -13.5276   -9.7136   35.5652 O.3       1 UNK        -0.2850 
     24 O24       -11.6751   -6.9331   39.0140 O.3       1 UNK        -0.2850 
     25 O25       -12.6855   -7.3406   36.3510 O.3       1 UNK        -0.2850 
     26 H26        -9.2651  -16.1637   34.7794 H         1 UNK         0.1514 
     27 H27        -7.7948  -16.5296   36.7521 H         1 UNK         0.1607 
     28 H28       -11.4348  -14.9531   35.0392 H         1 UNK         0.2091 
     29 H29        -8.4879  -15.6836   38.9982 H         1 UNK         0.1984 
     30 H30       -13.4993  -11.6473   37.4571 H         1 UNK         0.1150 
     31 H31       -11.8413   -9.1734   40.5332 H         1 UNK         0.1150 
     32 H32       -10.0853  -13.2781   40.9378 H         1 UNK         0.0600 
     33 H33       -11.3933  -14.3849   41.4108 H         1 UNK         0.0600 
     34 H34        -9.8309  -15.0324   40.9023 H         1 UNK         0.0600 
     35 H35       -14.0259  -10.9215   33.9789 H         1 UNK         0.0300 
     36 H36       -14.6885  -11.4428   35.5220 H         1 UNK         0.0300 
     37 H37       -12.9618  -11.6796   35.1572 H         1 UNK         0.0300 
     38 H38       -10.7882   -5.7481   40.4393 H         1 UNK         0.0300 
     39 H39       -10.3013   -7.4368   40.4984 H         1 UNK         0.0300 
     40 H40       -11.9089   -6.9391   41.0858 H         1 UNK         0.0300 
     41 H41       -13.3912   -5.4606   35.9292 H         1 UNK         0.0300 
     42 H42       -12.0381   -5.4926   37.0462 H         1 UNK         0.0300 
     43 H43       -13.6663   -5.9684   37.5900 H         1 UNK         0.0300 
     44 H44       -14.1186  -12.9446   39.1144 H         1 UNK         0.0600 
     45 H45       -13.4037  -13.6406   40.5537 H         1 UNK         0.0600 
@<TRIPOS>BOND
     1    1    2 ar   
     2    1    3 ar   
     3    1   26 1    
     4    2    4 ar   
     5    2   27 1    
     6    3    8 ar   
     7    3   28 1    
     8    4    9 ar   
     9    4   29 1    
    10    5    7 ar   
    11    5   10 ar   
    12    5   30 1    
    13    6    7 ar   
    14    6   11 ar   
    15    6   31 1    
    16    7   14 1    
    17    8    9 ar   
    18    8   20 ar   
    19    9   21 ar   
    20   10   12 ar   
    21   10   23 1    
    22   11   12 ar   
    23   11   24 1    
    24   12   25 1    
    25   13   19 1    
    26   13   20 ar   
    27   13   21 ar   
    28   14   19 1    
    29   14   22 2    
    30   15   21 1    
    31   15   32 1    
    32   15   33 1    
    33   15   34 1    
    34   16   23 1    
    35   16   35 1    
    36   16   36 1    
    37   16   37 1    
    38   17   24 1    
    39   17   38 1    
    40   17   39 1    
    41   17   40 1    
    42   18   25 1    
    43   18   41 1    
    44   18   42 1    
    45   18   43 1    
    46   19   44 1    
    47   19   45 1    
@<TRIPOS>SUBSTRUCTURE
     1 UNK         1 GROUP             0       ****    0 ROOT    
@<TRIPOS>MOLECULE
ZINC03960957_210
45   47    1
SMALL
USER_CHARGES


@<TRIPOS>ATOM
      1 C1         -5.9147  -14.0841   38.1434 C.ar      1 UNK        -0.1150 
      2 C2         -6.1920  -12.2365   36.5839 C.ar      1 UNK        -0.1150 
      3 C3         -5.6185  -14.9462   37.0686 C.ar      1 UNK        -0.1150 
      4 C4         -5.8948  -13.0976   35.5088 C.ar      1 UNK        -0.1150 
      5 C5        -10.0607   -6.8211   38.8431 C.ar      1 UNK        -0.1150 
      6 C6         -8.9658   -4.7550   39.5042 C.ar      1 UNK        -0.1150 
      7 C7         -6.3549  -12.0604   40.3858 C.2       1 UNK        -0.3376 
      8 C8         -6.2072  -12.7199   37.9137 C.ar      1 UNK         0.0000 
      9 C9         -9.2313   -6.1154   39.7384 C.ar      1 UNK         0.0631 
     10 C10       -10.6018   -6.1971   37.6923 C.ar      1 UNK         0.0850 
     11 C11        -9.4884   -4.1046   38.3616 C.ar      1 UNK         0.0850 
     12 C12       -10.2891   -4.8281   37.4457 C.ar      1 UNK         0.0850 
     13 C13        -5.6088  -14.4533   35.7511 C.ar      1 UNK         0.2000 
     14 C14        -6.5168  -11.8239   39.0394 C.2       1 UNK         0.2843 
     15 C15        -7.2917   -9.8577   39.9035 C.2       1 UNK         0.5009 
     16 C16        -8.6688   -6.7596   40.9426 C.2       1 UNK         0.1451 
     17 C17       -11.7605   -8.2278   37.0754 C.3       1 UNK         0.1100 
     18 C18        -8.4378   -2.0178   38.9539 C.3       1 UNK         0.1100 
     19 C19       -10.9316   -4.7727   35.1208 C.3       1 UNK         0.1100 
     20 N20        -7.0541  -10.5520   38.7945 N.2       1 UNK        -0.4803 
     21 N21        -8.0899   -7.9121   40.9997 N.2       1 UNK        -0.2767 
     22 N22        -7.8311   -8.5812   39.8811 N.pl3     1 UNK        -0.5800 
     23 O23       -11.4402   -6.8668   36.8221 O.3       1 UNK        -0.2850 
     24 O24        -9.2493   -2.7762   38.0701 O.3       1 UNK        -0.2850 
     25 O25       -10.7467   -4.1067   36.3606 O.3       1 UNK        -0.2850 
     26 S26        -6.8655  -10.7191   41.3750 S.3       1 UNK         0.0010 
     27 Br27       -5.2108  -15.6184   34.3014 Br        1 UNK        -0.2000 
     28 H28        -5.9226  -14.4843   39.1456 H         1 UNK         0.1150 
     29 H29        -6.4084  -11.1977   36.3805 H         1 UNK         0.1150 
     30 H30        -5.4000  -15.9880   37.2515 H         1 UNK         0.1150 
     31 H31        -5.8864  -12.7190   34.4973 H         1 UNK         0.1150 
     32 H32       -10.2826   -7.8513   39.0766 H         1 UNK         0.1150 
     33 H33        -8.3442   -4.2275   40.2111 H         1 UNK         0.1150 
     34 H34        -5.9613  -12.9423   40.8638 H         1 UNK         0.2317 
     35 H35        -8.7490   -6.1975   41.8738 H         1 UNK         0.0685 
     36 H36       -12.4158   -8.5941   36.2851 H         1 UNK         0.0300 
     37 H37       -12.2919   -8.3432   38.0210 H         1 UNK         0.0300 
     38 H38       -10.8692   -8.8568   37.0794 H         1 UNK         0.0300 
     39 H39        -8.3495   -0.9997   38.5749 H         1 UNK         0.0300 
     40 H40        -7.4306   -2.4307   39.0250 H         1 UNK         0.0300 
     41 H41        -8.8791   -1.9606   39.9498 H         1 UNK         0.0300 
     42 H42       -10.8453   -4.0474   34.3123 H         1 UNK         0.0300 
     43 H43       -11.9268   -5.2129   35.0552 H         1 UNK         0.0300 
     44 H44       -10.1792   -5.5440   34.9497 H         1 UNK         0.0300 
     45 H45        -7.9941   -8.1822   38.9678 H         1 UNK         0.3800 
@<TRIPOS>BOND
     1    1    3 ar   
     2    1    8 ar   
     3    1   28 1    
     4    2    4 ar   
     5    2    8 ar   
     6    2   29 1    
     7    3   13 ar   
     8    3   30 1    
     9    4   13 ar   
    10    4   31 1    
    11    5    9 ar   
    12    5   10 ar   
    13    5   32 1    
    14    6    9 ar   
    15    6   11 ar   
    16    6   33 1    
    17    7   14 2    
    18    7   26 1    
    19    7   34 1    
    20    8   14 1    
    21    9   16 1    
    22   10   12 ar   
    23   10   23 1    
    24   11   12 ar   
    25   11   24 1    
    26   12   25 1    
    27   13   27 1    
    28   14   20 1    
    29   15   20 2    
    30   15   22 1    
    31   15   26 1    
    32   16   21 2    
    33   16   35 1    
    34   17   23 1    
    35   17   36 1    
    36   17   37 1    
    37   17   38 1    
    38   18   24 1    
    39   18   39 1    
    40   18   40 1    
    41   18   41 1    
    42   19   25 1    
    43   19   42 1    
    44   19   43 1    
    45   19   44 1    
    46   21   22 1    
    47   22   45 1    
@<TRIPOS>SUBSTRUCTURE
     1 UNK         1 GROUP             0       ****    0 ROOT    
@<TRIPOS>MOLECULE
ZINC04032932_212
56   58    1
SMALL
USER_CHARGES


@<TRIPOS>ATOM
      1 C1         -4.9251  -10.2730   36.8028 C.ar      1 UNK        -0.1150 
      2 C2         -5.1880  -10.8570   35.5505 C.ar      1 UNK        -0.1150 
      3 C3         -8.3743   -7.7871   38.5392 C.ar      1 UNK        -0.1150 
      4 C4         -8.5897   -5.5944   39.5707 C.ar      1 UNK        -0.1150 
      5 C5         -5.5395  -10.7941   37.9543 C.ar      1 UNK         0.0000 
      6 C6         -8.1326   -6.9233   39.6256 C.ar      1 UNK        -0.1150 
      7 C7         -6.0662  -11.9573   35.4383 C.ar      1 UNK        -0.1150 
      8 C8         -6.6951  -12.4816   36.5983 C.ar      1 UNK        -0.1150 
      9 C9         -6.4127  -11.8942   37.8553 C.ar      1 UNK         0.0850 
     10 C10        -9.0885   -7.3333   37.4065 C.ar      1 UNK         0.0850 
     11 C11        -9.3224   -5.1161   38.4560 C.ar      1 UNK         0.0850 
     12 C12        -9.5596   -5.9990   37.3607 C.ar      1 UNK         0.0850 
     13 C13        -5.3211  -10.2259   39.2842 C.ar      1 UNK        -0.1150 
     14 C14        -5.9220  -10.7243   40.3875 C.ar      1 UNK        -0.0567 
     15 C15        -6.8100  -11.8931   40.2856 C.ar      1 UNK         0.5567 
     16 C16        -7.3619   -7.3974   40.8182 C.2       1 UNK         0.6150 
     17 C17        -6.3092  -12.5545   34.0628 C.3       1 UNK        -0.0650 
     18 C18        -7.6520  -13.6650   36.5121 C.3       1 UNK        -0.0650 
     19 C19        -8.7461   -9.4134   36.2408 C.3       1 UNK         0.1100 
     20 C20        -9.5967   -2.9573   39.5067 C.3       1 UNK         0.1100 
     21 C21       -10.1823   -4.3229   35.7397 C.3       1 UNK         0.1100 
     22 C22        -5.7268  -10.0809   41.7570 C.3       1 UNK        -0.1200 
     23 C23        -6.9854   -9.3625   42.2906 C.3       1 UNK         0.0800 
     24 N24        -6.9960  -12.3905   39.0488 N.pl3     1 UNK        -0.3850 
     25 N25        -7.6809   -8.6245   41.2414 N.am      1 UNK        -0.5000 
     26 O26        -7.3895  -12.4062   41.2384 O.2       1 UNK        -0.5000 
     27 O27        -6.5241   -6.6841   41.3642 O.2       1 UNK        -0.5000 
     28 O28        -9.3527   -8.1316   36.3109 O.3       1 UNK        -0.2850 
     29 O29        -9.8327   -3.8330   38.4134 O.3       1 UNK        -0.2850 
     30 O30       -10.2556   -5.6577   36.2169 O.3       1 UNK        -0.2850 
     31 H31        -4.2553   -9.4283   36.8737 H         1 UNK         0.1150 
     32 H32        -4.7085  -10.4497   34.6718 H         1 UNK         0.1150 
     33 H33        -7.9910   -8.7948   38.5854 H         1 UNK         0.1150 
     34 H34        -8.3735   -4.9630   40.4193 H         1 UNK         0.1150 
     35 H35        -4.6787   -9.3607   39.3570 H         1 UNK         0.1150 
     36 H36        -6.1236  -13.6289   34.0705 H         1 UNK         0.0600 
     37 H37        -7.3377  -12.3780   33.7465 H         1 UNK         0.0600 
     38 H38        -5.6507  -12.1132   33.3141 H         1 UNK         0.0600 
     39 H39        -7.1342  -14.5833   36.7906 H         1 UNK         0.0600 
     40 H40        -8.5026  -13.5323   37.1804 H         1 UNK         0.0600 
     41 H41        -8.0670  -13.8003   35.5147 H         1 UNK         0.0600 
     42 H42        -8.9927   -9.8784   35.2865 H         1 UNK         0.0300 
     43 H43        -9.1055  -10.0734   37.0311 H         1 UNK         0.0300 
     44 H44        -7.6601   -9.3384   36.2967 H         1 UNK         0.0300 
     45 H45       -10.0617   -1.9936   39.3000 H         1 UNK         0.0300 
     46 H46        -8.5304   -2.7815   39.6555 H         1 UNK         0.0300 
     47 H47       -10.0349   -3.3414   40.4288 H         1 UNK         0.0300 
     48 H48       -10.3862   -4.3169   34.6692 H         1 UNK         0.0300 
     49 H49        -9.1933   -3.8857   35.8862 H         1 UNK         0.0300 
     50 H50       -10.9348   -3.6933   36.2149 H         1 UNK         0.0300 
     51 H51        -4.9113   -9.3591   41.6943 H         1 UNK         0.0600 
     52 H52        -5.4000  -10.8396   42.4699 H         1 UNK         0.0600 
     53 H53        -7.6830  -10.0970   42.6952 H         1 UNK         0.0600 
     54 H54        -6.7249   -8.7025   43.1203 H         1 UNK         0.0600 
     55 H55        -7.5976  -13.1940   38.9803 H         1 UNK         0.3000 
     56 H56        -8.4347   -9.0923   40.7633 H         1 UNK         0.3000 
@<TRIPOS>BOND
     1    1    2 ar   
     2    1    5 ar   
     3    1   31 1    
     4    2    7 ar   
     5    2   32 1    
     6    3    6 ar   
     7    3   10 ar   
     8    3   33 1    
     9    4    6 ar   
    10    4   11 ar   
    11    4   34 1    
    12    5    9 ar   
    13    5   13 ar   
    14    6   16 1    
    15    7    8 ar   
    16    7   17 1    
    17    8    9 ar   
    18    8   18 1    
    19    9   24 ar   
    20   10   12 ar   
    21   10   28 1    
    22   11   12 ar   
    23   11   29 1    
    24   12   30 1    
    25   13   14 ar   
    26   13   35 1    
    27   14   15 ar   
    28   14   22 1    
    29   15   24 ar   
    30   15   26 2    
    31   16   25 am   BACKBONE|DICT|INTERRES
    32   16   27 2    
    33   17   36 1    
    34   17   37 1    
    35   17   38 1    
    36   18   39 1    
    37   18   40 1    
    38   18   41 1    
    39   19   28 1    
    40   19   42 1    
    41   19   43 1    
    42   19   44 1    
    43   20   29 1    
    44   20   45 1    
    45   20   46 1    
    46   20   47 1    
    47   21   30 1    
    48   21   48 1    
    49   21   49 1    
    50   21   50 1    
    51   22   23 1    
    52   22   51 1    
    53   22   52 1    
    54   23   25 1    
    55   23   53 1    
    56   23   54 1    
    57   24   55 1    
    58   25   56 1    
@<TRIPOS>SUBSTRUCTURE
     1 UNK         1 GROUP             0       ****    0 ROOT    
@<TRIPOS>MOLECULE
ZINC04084679_87
49   52    1
SMALL
USER_CHARGES


@<TRIPOS>ATOM
      1 C1         -8.3576   -7.0984   38.2675 C.ar      1 UNK        -0.1150 
      2 C2         -6.0339  -12.8247   36.5870 C.ar      1 UNK        -0.3541 
      3 C3         -8.8438   -6.3735   37.1671 C.ar      1 UNK        -0.1150 
      4 C4         -5.6068  -12.3946   35.3168 C.ar      1 UNK        -0.0888 
      5 C5         -5.2786  -10.1408   36.1902 C.ar      1 UNK        -0.2243 
      6 C6         -7.7745   -5.0081   39.3599 C.ar      1 UNK        -0.1150 
      7 C7         -5.7025  -10.5401   37.4776 C.ar      1 UNK         0.1233 
      8 C8         -7.7913   -6.4171   39.3629 C.ar      1 UNK        -0.1150 
      9 C9         -5.8707   -9.8810   38.7427 C.ar      1 UNK        -0.1749 
     10 C10        -6.0790  -11.9061   37.6481 C.ar      1 UNK         0.2860 
     11 C11        -5.2255  -11.0451   35.1100 C.ar      1 UNK         0.0267 
     12 C12        -8.7988   -4.9653   37.1356 C.ar      1 UNK         0.0850 
     13 C13        -8.2689   -4.2591   38.2592 C.ar      1 UNK         0.0850 
     14 C14        -6.3147  -10.8230   39.6263 C.ar      1 UNK        -0.0293 
     15 C15        -7.2900   -7.1649   40.5675 C.2       1 UNK         0.6150 
     16 C16        -5.6398   -8.4558   39.1538 C.3       1 UNK         0.0059 
     17 C17        -6.6227  -10.5533   41.0636 C.3       1 UNK        -0.0050 
     18 C18        -6.1181   -9.1455   41.4683 C.3       1 UNK        -0.0500 
     19 C19        -4.7490  -11.4121   32.7865 C.3       1 UNK         0.1100 
     20 C20        -9.1559   -3.0294   35.7063 C.3       1 UNK         0.1100 
     21 C21        -7.7880   -2.1866   39.4086 C.3       1 UNK         0.1100 
     22 N22        -6.4495  -12.0348   38.9742 N.pl3     1 UNK        -0.4786 
     23 N23        -6.3913   -8.1663   40.3945 N.am      1 UNK        -0.1400 
     24 O24        -7.7237   -6.8473   41.6751 O.2       1 UNK        -0.5000 
     25 O25        -4.7973  -10.5376   33.9042 O.3       1 UNK        -0.3000 
     26 O26        -9.3114   -4.4130   35.9769 O.3       1 UNK        -0.2850 
     27 O27        -8.2572   -2.8781   38.2598 O.3       1 UNK        -0.2850 
     28 H28        -8.4145   -8.1784   38.2638 H         1 UNK         0.1150 
     29 H29        -6.3243  -13.8526   36.7393 H         1 UNK         0.1796 
     30 H30        -9.2618   -6.9051   36.3248 H         1 UNK         0.1150 
     31 H31        -5.5806  -13.1176   34.5156 H         1 UNK         0.1359 
     32 H32        -4.9897   -9.1143   36.0271 H         1 UNK         0.1699 
     33 H33        -7.3708   -4.5226   40.2351 H         1 UNK         0.1150 
     34 H34        -4.5802   -8.3051   39.3620 H         1 UNK         0.0600 
     35 H35        -5.8574   -7.7771   38.3310 H         1 UNK         0.0600 
     36 H36        -7.7015  -10.6084   41.2150 H         1 UNK         0.0600 
     37 H37        -6.1745  -11.3133   41.7045 H         1 UNK         0.0600 
     38 H38        -6.5377   -8.8608   42.4346 H         1 UNK         0.0600 
     39 H39        -5.0379   -9.1788   41.6157 H         1 UNK         0.0600 
     40 H40        -4.3965  -10.8616   31.9144 H         1 UNK         0.0300 
     41 H41        -5.7369  -11.8091   32.5485 H         1 UNK         0.0300 
     42 H42        -4.0574  -12.2383   32.9564 H         1 UNK         0.0300 
     43 H43        -9.4933   -2.8271   34.6899 H         1 UNK         0.0300 
     44 H44        -8.1116   -2.7202   35.7688 H         1 UNK         0.0300 
     45 H45        -9.7662   -2.4217   36.3749 H         1 UNK         0.0300 
     46 H46        -7.8759   -1.1134   39.2404 H         1 UNK         0.0300 
     47 H47        -6.7368   -2.4026   39.6038 H         1 UNK         0.0300 
     48 H48        -8.3810   -2.4296   40.2916 H         1 UNK         0.0300 
     49 H49        -6.7735  -12.8797   39.4199 H         1 UNK         0.3577 
@<TRIPOS>BOND
     1    1    3 ar   
     2    1    8 ar   
     3    1   28 1    
     4    2    4 ar   
     5    2   10 ar   
     6    2   29 1    
     7    3   12 ar   
     8    3   30 1    
     9    4   11 ar   
    10    4   31 1    
    11    5    7 ar   
    12    5   11 ar   
    13    5   32 1    
    14    6    8 ar   
    15    6   13 ar   
    16    6   33 1    
    17    7    9 ar   
    18    7   10 ar   
    19    8   15 1    
    20    9   14 ar   
    21    9   16 1    
    22   10   22 ar   
    23   11   25 1    
    24   12   13 ar   
    25   12   26 1    
    26   13   27 1    
    27   14   17 1    
    28   14   22 ar   
    29   15   23 am   BACKBONE|DICT|INTERRES
    30   15   24 2    
    31   16   23 1    
    32   16   34 1    
    33   16   35 1    
    34   17   18 1    
    35   17   36 1    
    36   17   37 1    
    37   18   23 1    
    38   18   38 1    
    39   18   39 1    
    40   19   25 1    
    41   19   40 1    
    42   19   41 1    
    43   19   42 1    
    44   20   26 1    
    45   20   43 1    
    46   20   44 1    
    47   20   45 1    
    48   21   27 1    
    49   21   46 1    
    50   21   47 1    
    51   21   48 1    
    52   22   49 1    
@<TRIPOS>SUBSTRUCTURE
     1 UNK         1 GROUP             0       ****    0 ROOT    
@<TRIPOS>MOLECULE
ZINC04113869_5
46   49    1
SMALL
USER_CHARGES


@<TRIPOS>ATOM
      1 C1         -4.2633  -11.4380   38.8301 C.ar      1 UNK        -0.1150 
      2 C2         -5.0863   -9.9405   37.1151 C.ar      1 UNK        -0.1150 
      3 C3         -4.0280  -12.4246   37.8532 C.ar      1 UNK        -0.1150 
      4 C4         -4.8513  -10.9244   36.1346 C.ar      1 UNK        -0.1150 
      5 C5         -6.8443   -3.8784   39.5357 C.ar      1 UNK        -0.1150 
      6 C6         -7.8212   -5.8597   38.5083 C.ar      1 UNK        -0.1150 
      7 C7         -6.9987   -5.2790   39.4966 C.ar      1 UNK         0.0000 
      8 C8         -4.7957  -10.1758   38.4797 C.ar      1 UNK         0.0000 
      9 C9         -4.3148  -12.1823   36.4976 C.ar      1 UNK         0.0850 
     10 C10        -7.4956   -3.0513   38.5902 C.ar      1 UNK         0.0850 
     11 C11        -8.4764   -5.0536   37.5471 C.ar      1 UNK         0.0850 
     12 C12        -8.3017   -3.6517   37.5974 C.ar      1 UNK         0.0850 
     13 C13        -6.3050   -6.1014   40.4895 C.ar      1 UNK         0.4100 
     14 C14        -5.1913   -7.7204   41.5143 C.ar      1 UNK         0.4175 
     15 C15        -5.0429   -9.1326   39.5000 C.2       1 UNK         0.2453 
     16 C16        -4.2945  -12.9699   34.2307 C.3       1 UNK         0.1100 
     17 C17        -6.6648   -1.0416   39.6153 C.3       1 UNK         0.1100 
     18 C18        -9.5094   -6.9584   36.5013 C.3       1 UNK         0.1100 
     19 C19        -8.2298   -2.7052   35.4728 C.3       1 UNK         0.1100 
     20 N20        -6.0964   -5.7456   41.7697 N.2       1 UNK        -0.3633 
     21 N21        -5.3927   -6.7921   42.4154 N.2       1 UNK        -0.3633 
     22 N22        -5.6978   -8.0041   39.2024 N.2       1 UNK        -0.2500 
     23 N23        -5.7428   -7.3031   40.3544 N.pl3     1 UNK        -0.0934 
     24 O24        -4.0490  -13.2014   35.6102 O.3       1 UNK        -0.2850 
     25 O25        -7.3851   -1.6761   38.5692 O.3       1 UNK        -0.2850 
     26 O26        -9.2865   -5.5573   36.5496 O.3       1 UNK        -0.2850 
     27 O27        -8.9446   -2.8542   36.6868 O.3       1 UNK        -0.2850 
     28 S28        -4.4847   -9.2974   41.2016 S.3       1 UNK        -0.0028 
     29 H29        -4.0269  -11.6727   39.8570 H         1 UNK         0.1150 
     30 H30        -5.4928   -8.9890   36.8039 H         1 UNK         0.1150 
     31 H31        -3.6197  -13.3814   38.1451 H         1 UNK         0.1150 
     32 H32        -5.0909  -10.6873   35.1094 H         1 UNK         0.1150 
     33 H33        -6.2152   -3.4605   40.3070 H         1 UNK         0.1150 
     34 H34        -7.9451   -6.9304   38.5093 H         1 UNK         0.1150 
     35 H35        -4.0196  -13.8581   33.6620 H         1 UNK         0.0300 
     36 H36        -3.6960  -12.1392   33.8537 H         1 UNK         0.0300 
     37 H37        -5.3502  -12.7712   34.0414 H         1 UNK         0.0300 
     38 H38        -6.7119    0.0387   39.4791 H         1 UNK         0.0300 
     39 H39        -5.6127   -1.3290   39.6071 H         1 UNK         0.0300 
     40 H40        -7.0957   -1.2697   40.5913 H         1 UNK         0.0300 
     41 H41       -10.1741   -7.1870   35.6682 H         1 UNK         0.0300 
     42 H42        -9.9893   -7.3173   37.4128 H         1 UNK         0.0300 
     43 H43        -8.5796   -7.5057   36.3403 H         1 UNK         0.0300 
     44 H44        -8.7874   -2.0543   34.7997 H         1 UNK         0.0300 
     45 H45        -8.0882   -3.6640   34.9723 H         1 UNK         0.0300 
     46 H46        -7.2523   -2.2523   35.6450 H         1 UNK         0.0300 
@<TRIPOS>BOND
     1    1    3 ar   
     2    1    8 ar   
     3    1   29 1    
     4    2    4 ar   
     5    2    8 ar   
     6    2   30 1    
     7    3    9 ar   
     8    3   31 1    
     9    4    9 ar   
    10    4   32 1    
    11    5    7 ar   
    12    5   10 ar   
    13    5   33 1    
    14    6    7 ar   
    15    6   11 ar   
    16    6   34 1    
    17    7   13 1    
    18    8   15 1    
    19    9   24 1    
    20   10   12 ar   
    21   10   25 1    
    22   11   12 ar   
    23   11   26 1    
    24   12   27 1    
    25   13   20 ar   
    26   13   23 ar   
    27   14   21 ar   
    28   14   23 ar   
    29   14   28 1    
    30   15   22 2    
    31   15   28 1    
    32   16   24 1    
    33   16   35 1    
    34   16   36 1    
    35   16   37 1    
    36   17   25 1    
    37   17   38 1    
    38   17   39 1    
    39   17   40 1    
    40   18   26 1    
    41   18   41 1    
    42   18   42 1    
    43   18   43 1    
    44   19   27 1    
    45   19   44 1    
    46   19   45 1    
    47   19   46 1    
    48   20   21 ar   
    49   22   23 1    
@<TRIPOS>SUBSTRUCTURE
     1 UNK         1 GROUP             0       ****    0 ROOT    
@<TRIPOS>MOLECULE
ZINC04124149_5
42   43    1
SMALL
USER_CHARGES


@<TRIPOS>ATOM
      1 C1        -10.2103   -7.9578   38.6843 C.ar      1 UNK        -0.1150 
      2 C2         -8.9088   -6.0910   39.5505 C.ar      1 UNK        -0.1150 
      3 C3         -9.2495   -7.4584   39.5901 C.ar      1 UNK        -0.1150 
      4 C4        -10.7924   -7.1143   37.7087 C.ar      1 UNK         0.0850 
      5 C5         -9.4855   -5.2244   38.5909 C.ar      1 UNK         0.0850 
      6 C6        -10.4158   -5.7536   37.6638 C.ar      1 UNK         0.0850 
      7 C7         -7.3621  -11.0888   38.9926 C.2       1 UNK         0.1809 
      8 C8         -8.6425   -8.3392   40.6503 C.2       1 UNK         0.6150 
      9 C9         -7.0562  -11.6216   40.3464 C.3       1 UNK        -0.0721 
     10 C10        -7.6869  -10.5668   41.2657 C.3       1 UNK         0.4650 
     11 C11        -6.9947  -11.7858   37.7181 C.3       1 UNK        -0.1321 
     12 C12       -12.1027   -8.9098   36.7893 C.3       1 UNK         0.1100 
     13 C13        -8.3140   -3.3156   39.4724 C.3       1 UNK         0.1100 
     14 C14       -10.1295   -4.5671   35.6678 C.3       1 UNK         0.1100 
     15 C15        -8.8462  -11.1535   42.1274 C.3       1 UNK         0.6171 
     16 N16        -7.9659   -9.9609   39.0196 N.2       1 UNK        -0.2833 
     17 N17        -8.1779   -9.5646   40.3053 N.am      1 UNK        -0.1934 
     18 O18        -8.5246   -7.9019   41.7954 O.2       1 UNK        -0.5000 
     19 O19        -6.6749  -10.0486   42.1199 O.3       1 UNK        -0.6936 
     20 O20       -11.7147   -7.5447   36.7767 O.3       1 UNK        -0.2850 
     21 O21        -9.1987   -3.8764   38.5141 O.3       1 UNK        -0.2850 
     22 O22       -11.0008   -4.9461   36.7207 O.3       1 UNK        -0.2850 
     23 F23        -8.4103  -12.2061   42.8209 F         1 UNK        -0.2057 
     24 F24        -9.3328  -10.2598   42.9870 F         1 UNK        -0.2057 
     25 F25        -9.8422  -11.5630   41.3395 F         1 UNK        -0.2057 
     26 H26       -10.4847   -8.9988   38.7530 H         1 UNK         0.1150 
     27 H27        -8.1980   -5.7282   40.2778 H         1 UNK         0.1150 
     28 H28        -7.4998  -12.6079   40.4832 H         1 UNK         0.0600 
     29 H29        -5.9788  -11.7101   40.4899 H         1 UNK         0.0600 
     30 H30        -7.4632  -12.7686   37.6653 H         1 UNK         0.0600 
     31 H31        -5.9150  -11.9198   37.6501 H         1 UNK         0.0600 
     32 H32        -7.3160  -11.2133   36.8469 H         1 UNK         0.0600 
     33 H33       -12.8272   -9.0842   35.9942 H         1 UNK         0.0300 
     34 H34       -12.5784   -9.1795   37.7331 H         1 UNK         0.0300 
     35 H35       -11.2516   -9.5682   36.6099 H         1 UNK         0.0300 
     36 H36        -8.2181   -2.2456   39.2882 H         1 UNK         0.0300 
     37 H37        -7.3176   -3.7532   39.3988 H         1 UNK         0.0300 
     38 H38        -8.6919   -3.4416   40.4879 H         1 UNK         0.0300 
     39 H39       -10.7004   -4.0542   34.8940 H         1 UNK         0.0300 
     40 H40        -9.6597   -5.4400   35.2120 H         1 UNK         0.0300 
     41 H41        -9.3479   -3.8874   36.0063 H         1 UNK         0.0300 
     42 H42        -7.0761   -9.3278   42.5954 H         1 UNK         0.4286 
@<TRIPOS>BOND
     1    1    3 ar   
     2    1    4 ar   
     3    1   26 1    
     4    2    3 ar   
     5    2    5 ar   
     6    2   27 1    
     7    3    8 1    
     8    4    6 ar   
     9    4   20 1    
    10    5    6 ar   
    11    5   21 1    
    12    6   22 1    
    13    7    9 1    
    14    7   11 1    
    15    7   16 2    
    16    8   17 am   BACKBONE|DICT|INTERRES
    17    8   18 2    
    18    9   10 1    
    19    9   28 1    
    20    9   29 1    
    21   10   15 1    
    22   10   17 1    
    23   10   19 1    
    24   11   30 1    
    25   11   31 1    
    26   11   32 1    
    27   12   20 1    
    28   12   33 1    
    29   12   34 1    
    30   12   35 1    
    31   13   21 1    
    32   13   36 1    
    33   13   37 1    
    34   13   38 1    
    35   14   22 1    
    36   14   39 1    
    37   14   40 1    
    38   14   41 1    
    39   15   23 1    
    40   15   24 1    
    41   15   25 1    
    42   16   17 1    
    43   19   42 1    
@<TRIPOS>SUBSTRUCTURE
     1 UNK         1 GROUP             0       ****    0 ROOT    
@<TRIPOS>MOLECULE
ZINC04173345_26
47   48    1
SMALL
USER_CHARGES


@<TRIPOS>ATOM
      1 C1        -16.3366  -14.1760   38.6823 C.ar      1 UNK        -0.1150 
      2 C2        -15.1023  -12.2791   39.5563 C.ar      1 UNK        -0.1150 
      3 C3        -15.2705  -13.6719   39.4527 C.ar      1 UNK        -0.1150 
      4 C4        -17.2074  -13.3184   37.9866 C.ar      1 UNK         0.0850 
      5 C5        -15.9559  -11.3853   38.8649 C.ar      1 UNK         0.0850 
      6 C6        -16.9952  -11.9084   38.0434 C.ar      1 UNK         0.0850 
      7 C7        -14.3511  -14.5913   40.2004 C.2       1 UNK         0.6150 
      8 C8        -14.7299  -18.8513   40.5432 C.3       1 UNK        -0.1200 
      9 C9        -13.7778  -19.8030   39.7889 C.3       1 UNK        -0.1200 
     10 C10       -13.9822  -17.6776   41.1905 C.3       1 UNK        -0.1200 
     11 C11       -12.6853  -17.6584   38.9619 C.3       1 UNK        -0.1200 
     12 C12       -12.4541  -19.1364   39.3380 C.3       1 UNK         0.0286 
     13 C13       -13.2423  -16.8181   40.1373 C.3       1 UNK         0.1400 
     14 C14       -19.3565  -13.2673   36.8661 C.3       1 UNK         0.1100 
     15 C15       -14.8589   -9.4785   39.8581 C.3       1 UNK         0.1100 
     16 C16       -17.1813  -10.0765   36.5234 C.3       1 UNK         0.1100 
     17 C17       -11.7614  -19.9284   38.2108 C.3       1 UNK         0.5114 
     18 N18       -14.1265  -15.7776   39.6204 N.am      1 UNK        -0.5000 
     19 O19       -13.8034  -14.2360   41.2415 O.2       1 UNK        -0.5000 
     20 O20       -18.1935  -13.9718   37.2730 O.3       1 UNK        -0.2850 
     21 O21       -15.8306  -10.0138   38.9707 O.3       1 UNK        -0.2850 
     22 O22       -17.8147  -11.0699   37.3192 O.3       1 UNK        -0.2850 
     23 F23       -12.5170  -19.9382   37.1126 F         1 UNK        -0.2000 
     24 F24       -10.5852  -19.3728   37.9219 F         1 UNK        -0.2000 
     25 F25       -11.5499  -21.1836   38.6049 F         1 UNK        -0.2000 
     26 H26       -16.5161  -15.2392   38.6245 H         1 UNK         0.1150 
     27 H27       -14.2997  -11.9197   40.1826 H         1 UNK         0.1150 
     28 H28       -15.4708  -18.4525   39.8486 H         1 UNK         0.0600 
     29 H29       -15.2919  -19.4061   41.2957 H         1 UNK         0.0600 
     30 H30       -13.5356  -20.6593   40.4199 H         1 UNK         0.0600 
     31 H31       -14.3060  -20.2143   38.9278 H         1 UNK         0.0600 
     32 H32       -14.6650  -17.0676   41.7843 H         1 UNK         0.0600 
     33 H33       -13.2586  -18.0736   41.9050 H         1 UNK         0.0600 
     34 H34       -11.7591  -17.2078   38.6027 H         1 UNK         0.0600 
     35 H35       -13.3732  -17.6358   38.1153 H         1 UNK         0.0600 
     36 H36       -11.7727  -19.1456   40.1903 H         1 UNK         0.0600 
     37 H37       -12.3998  -16.3369   40.6400 H         1 UNK         0.0600 
     38 H38       -19.1573  -12.6432   35.9946 H         1 UNK         0.0300 
     39 H39       -19.7670  -12.6571   37.6721 H         1 UNK         0.0300 
     40 H40       -20.1239  -13.9856   36.5789 H         1 UNK         0.0300 
     41 H41       -15.0286   -9.8089   40.8840 H         1 UNK         0.0300 
     42 H42       -14.9265   -8.3908   39.8488 H         1 UNK         0.0300 
     43 H43       -13.8469   -9.7469   39.5520 H         1 UNK         0.0300 
     44 H44       -17.1356   -9.1237   37.0510 H         1 UNK         0.0300 
     45 H45       -17.7667   -9.9183   35.6179 H         1 UNK         0.0300 
     46 H46       -16.1737  -10.3634   36.2178 H         1 UNK         0.0300 
     47 H47       -14.5941  -15.9462   38.7443 H         1 UNK         0.3000 
@<TRIPOS>BOND
     1    1    3 ar   
     2    1    4 ar   
     3    1   26 1    
     4    2    3 ar   
     5    2    5 ar   
     6    2   27 1    
     7    3    7 1    
     8    4    6 ar   
     9    4   20 1    
    10    5    6 ar   
    11    5   21 1    
    12    6   22 1    
    13    7   18 am   BACKBONE|DICT|INTERRES
    14    7   19 2    
    15    8    9 1    
    16    8   10 1    
    17    8   28 1    
    18    8   29 1    
    19    9   12 1    
    20    9   30 1    
    21    9   31 1    
    22   10   13 1    
    23   10   32 1    
    24   10   33 1    
    25   11   12 1    
    26   11   13 1    
    27   11   34 1    
    28   11   35 1    
    29   12   17 1    
    30   12   36 1    
    31   13   18 1    
    32   13   37 1    
    33   14   20 1    
    34   14   38 1    
    35   14   39 1    
    36   14   40 1    
    37   15   21 1    
    38   15   41 1    
    39   15   42 1    
    40   15   43 1    
    41   16   22 1    
    42   16   44 1    
    43   16   45 1    
    44   16   46 1    
    45   17   23 1    
    46   17   24 1    
    47   17   25 1    
    48   18   47 1    
@<TRIPOS>SUBSTRUCTURE
     1 UNK         1 GROUP             0       ****    0 ROOT    
@<TRIPOS>MOLECULE
ZINC04175573_5
40   42    1
SMALL
USER_CHARGES


@<TRIPOS>ATOM
      1 C1         -6.9170  -13.2960   35.5474 C.ar      1 UNK        -0.1150 
      2 C2         -7.4137  -12.6234   36.6811 C.ar      1 UNK        -0.1150 
      3 C3         -7.0536  -14.6925   35.4397 C.ar      1 UNK        -0.1150 
      4 C4         -9.1989  -13.0854   40.0323 C.2       1 UNK        -0.1540 
      5 C5         -9.4860  -11.9254   40.8043 C.2       1 UNK        -0.1540 
      6 C6         -8.1819  -14.7406   37.5993 C.ar      1 UNK        -0.1150 
      7 C7         -8.0533  -13.3375   37.7215 C.ar      1 UNK        -0.4134 
      8 C8         -7.6864  -15.4149   36.4670 C.ar      1 UNK         0.1800 
      9 C9         -8.5750  -12.6492   38.8973 C.2       1 UNK         0.5364 
     10 C10        -9.0358  -10.8502   40.0816 C.2       1 UNK         0.0080 
     11 C11        -9.0189   -9.4374   40.3777 C.2       1 UNK         0.7137 
     12 C12       -11.8161   -5.9592   37.3524 C.2       1 UNK         0.5000 
     13 C13       -10.1744   -8.9897   38.1847 C.3       1 UNK        -0.0500 
     14 C14        -9.2380   -7.1160   39.4264 C.3       1 UNK        -0.0500 
     15 C15       -11.5584   -8.3075   38.2097 C.3       1 UNK        -0.0500 
     16 C16       -10.6222   -6.4424   39.4678 C.3       1 UNK        -0.0500 
     17 C17       -12.5919   -6.4571   36.1345 C.3       1 UNK        -0.1800 
     18 N18        -9.4051   -8.5810   39.3755 N.pl3     1 UNK        -0.2625 
     19 N19       -11.3856   -6.8487   38.2792 N.am      1 UNK        -0.1400 
     20 O20       -11.6099   -4.7513   37.4484 O.2       1 UNK        -0.5000 
     21 O21        -8.4576  -11.2930   38.9262 O.3       1 UNK        -0.1900 
     22 S22        -8.5127   -8.9752   41.9029 S.2       1 UNK        -0.4762 
     23 Cl23       -7.8583  -17.1263   36.3416 Cl        1 UNK        -0.1800 
     24 H24        -6.4295  -12.7407   34.7593 H         1 UNK         0.1150 
     25 H25        -7.2946  -11.5503   36.7423 H         1 UNK         0.1150 
     26 H26        -6.6737  -15.2111   34.5723 H         1 UNK         0.1150 
     27 H27        -9.4156  -14.1140   40.2778 H         1 UNK         0.1260 
     28 H28        -9.9620  -11.8769   41.7736 H         1 UNK         0.1260 
     29 H29        -8.6636  -15.3205   38.3729 H         1 UNK         0.1150 
     30 H30       -10.3317  -10.0641   38.1075 H         1 UNK         0.0600 
     31 H31        -9.6236   -8.6983   37.2891 H         1 UNK         0.0600 
     32 H32        -8.6990   -6.7940   38.5344 H         1 UNK         0.0600 
     33 H33        -8.6346   -6.7703   40.2652 H         1 UNK         0.0600 
     34 H34       -12.1339   -8.6367   37.3459 H         1 UNK         0.0600 
     35 H35       -12.1259   -8.6361   39.0818 H         1 UNK         0.0600 
     36 H36       -11.1660   -6.7330   40.3678 H         1 UNK         0.0600 
     37 H37       -10.4941   -5.3604   39.5336 H         1 UNK         0.0600 
     38 H38       -13.5140   -6.9509   36.4402 H         1 UNK         0.0600 
     39 H39       -11.9880   -7.1478   35.5464 H         1 UNK         0.0600 
     40 H40       -12.8601   -5.6185   35.4914 H         1 UNK         0.0600 
@<TRIPOS>BOND
     1    1    2 ar   
     2    1    3 ar   
     3    1   24 1    
     4    2    7 ar   
     5    2   25 1    
     6    3    8 ar   
     7    3   26 1    
     8    4    5 1    
     9    4    9 2    
    10    4   27 1    
    11    5   10 2    
    12    5   28 1    
    13    6    7 ar   
    14    6    8 ar   
    15    6   29 1    
    16    7    9 1    
    17    8   23 1    
    18    9   21 1    
    19   10   11 1    
    20   10   21 1    
    21   11   18 1    
    22   11   22 2    
    23   12   17 1    
    24   12   19 am   BACKBONE|DICT|INTERRES
    25   12   20 2    
    26   13   15 1    
    27   13   18 1    
    28   13   30 1    
    29   13   31 1    
    30   14   16 1    
    31   14   18 1    
    32   14   32 1    
    33   14   33 1    
    34   15   19 1    
    35   15   34 1    
    36   15   35 1    
    37   16   19 1    
    38   16   36 1    
    39   16   37 1    
    40   17   38 1    
    41   17   39 1    
    42   17   40 1    
@<TRIPOS>SUBSTRUCTURE
     1 UNK         1 GROUP             0       ****    0 ROOT    
@<TRIPOS>MOLECULE
ZINC04178923_112
42   43    1
SMALL
USER_CHARGES


@<TRIPOS>ATOM
      1 C1         -9.1056   -6.2654   39.6335 C.ar      1 UNK        -0.1150 
      2 C2        -10.3472   -8.1291   38.6761 C.ar      1 UNK        -0.1150 
      3 C3         -9.4347   -7.6355   39.6330 C.ar      1 UNK        -0.1150 
      4 C4         -9.6388   -5.3896   38.6573 C.ar      1 UNK         0.0850 
      5 C5        -10.8917   -7.2743   37.6889 C.ar      1 UNK         0.0850 
      6 C6        -10.5195   -5.9113   37.6788 C.ar      1 UNK         0.0850 
      7 C7         -7.6246  -11.2887   39.0305 C.2       1 UNK         0.2288 
      8 C8         -8.8651   -8.5274   40.7029 C.2       1 UNK         0.6150 
      9 C9         -7.3941  -11.8511   40.3883 C.3       1 UNK        -0.0721 
     10 C10        -7.5900  -10.6165   41.2698 C.3       1 UNK         0.6009 
     11 C11        -8.5229   -3.4872   39.6207 C.3       1 UNK         0.1100 
     12 C12       -12.2086   -9.0451   36.7322 C.3       1 UNK         0.1100 
     13 C13       -10.1435   -4.6934   35.7167 C.3       1 UNK         0.1100 
     14 C14        -7.3684  -12.0461   37.7630 C.3       1 UNK         0.0900 
     15 C15        -6.2381  -10.1003   41.8209 C.3       1 UNK        -0.0459 
     16 N16        -8.0887  -10.0945   39.0543 N.2       1 UNK        -0.2833 
     17 N17        -8.2213   -9.6660   40.3412 N.am      1 UNK        -0.1934 
     18 O18        -8.9874   -8.1892   41.8807 O.2       1 UNK        -0.5000 
     19 O19        -8.3973  -10.9642   42.3779 O.3       1 UNK        -0.6830 
     20 O20        -9.3551   -4.0395   38.6117 O.3       1 UNK        -0.2850 
     21 O21       -11.7706   -7.6955   36.7121 O.3       1 UNK        -0.2850 
     22 O22       -11.0632   -5.0945   36.7191 O.3       1 UNK        -0.2850 
     23 F23        -6.0956  -12.4356   37.7043 F         1 UNK        -0.1200 
     24 F24        -8.1610  -13.1149   37.6944 F         1 UNK        -0.1200 
     25 F25        -6.3757   -8.9881   42.5421 F         1 UNK        -0.1200 
     26 F26        -5.3695   -9.8633   40.8365 F         1 UNK        -0.1200 
     27 H27        -8.4357   -5.9097   40.4017 H         1 UNK         0.1150 
     28 H28       -10.6153   -9.1731   38.7180 H         1 UNK         0.1150 
     29 H29        -8.1242  -12.6353   40.5922 H         1 UNK         0.0600 
     30 H30        -6.3958  -12.2778   40.4817 H         1 UNK         0.0600 
     31 H31        -8.4151   -2.4164   39.4490 H         1 UNK         0.0300 
     32 H32        -7.5244   -3.9257   39.5995 H         1 UNK         0.0300 
     33 H33        -8.9574   -3.6197   40.6125 H         1 UNK         0.0300 
     34 H34       -12.9160   -9.2040   35.9185 H         1 UNK         0.0300 
     35 H35       -12.7212   -9.2842   37.6650 H         1 UNK         0.0300 
     36 H36       -11.3776   -9.7364   36.5867 H         1 UNK         0.0300 
     37 H37       -10.6783   -4.1670   34.9264 H         1 UNK         0.0300 
     38 H38        -9.6505   -5.5569   35.2679 H         1 UNK         0.0300 
     39 H39        -9.3805   -4.0190   36.1046 H         1 UNK         0.0300 
     40 H40        -7.5662  -11.4314   36.8835 H         1 UNK         0.1500 
     41 H41        -5.7756  -10.8398   42.4754 H         1 UNK         0.1500 
     42 H42        -8.6954  -10.1422   42.7553 H         1 UNK         0.4180 
@<TRIPOS>BOND
     1    1    3 ar   
     2    1    4 ar   
     3    1   27 1    
     4    2    3 ar   
     5    2    5 ar   
     6    2   28 1    
     7    3    8 1    
     8    4    6 ar   
     9    4   20 1    
    10    5    6 ar   
    11    5   21 1    
    12    6   22 1    
    13    7    9 1    
    14    7   14 1    
    15    7   16 2    
    16    8   17 am   BACKBONE|DICT|INTERRES
    17    8   18 2    
    18    9   10 1    
    19    9   29 1    
    20    9   30 1    
    21   10   15 1    
    22   10   17 1    
    23   10   19 1    
    24   11   20 1    
    25   11   31 1    
    26   11   32 1    
    27   11   33 1    
    28   12   21 1    
    29   12   34 1    
    30   12   35 1    
    31   12   36 1    
    32   13   22 1    
    33   13   37 1    
    34   13   38 1    
    35   13   39 1    
    36   14   23 1    
    37   14   24 1    
    38   14   40 1    
    39   15   25 1    
    40   15   26 1    
    41   15   41 1    
    42   16   17 1    
    43   19   42 1    
@<TRIPOS>SUBSTRUCTURE
     1 UNK         1 GROUP             0       ****    0 ROOT    
@<TRIPOS>MOLECULE
ZINC04178924_37
42   43    1
SMALL
USER_CHARGES


@<TRIPOS>ATOM
      1 C1        -10.2196   -8.0130   38.6820 C.ar      1 UNK        -0.1150 
      2 C2         -8.8322   -6.1532   39.4020 C.ar      1 UNK        -0.1150 
      3 C3         -9.2183   -7.5008   39.5303 C.ar      1 UNK        -0.1150 
      4 C4        -10.7935   -7.2058   37.6729 C.ar      1 UNK         0.0850 
      5 C5         -9.3959   -5.3162   38.4070 C.ar      1 UNK         0.0850 
      6 C6        -10.3684   -5.8648   37.5193 C.ar      1 UNK         0.0850 
      7 C7         -7.3215  -11.1344   39.0563 C.2       1 UNK         0.2288 
      8 C8         -8.6156   -8.3457   40.6213 C.2       1 UNK         0.6150 
      9 C9         -6.9892  -11.6082   40.4264 C.3       1 UNK        -0.0721 
     10 C10        -7.7478  -10.6047   41.2973 C.3       1 UNK         0.6009 
     11 C11       -12.2407   -8.9887   36.9449 C.3       1 UNK         0.1100 
     12 C12        -8.1367   -3.4211   39.2221 C.3       1 UNK         0.1100 
     13 C13       -10.2721   -4.1287   35.8433 C.3       1 UNK         0.1100 
     14 C14        -6.9254  -11.8639   37.8084 C.3       1 UNK         0.0900 
     15 C15        -8.9400  -11.2630   42.0292 C.3       1 UNK        -0.0459 
     16 N16        -7.9673  -10.0278   39.0471 N.2       1 UNK        -0.2833 
     17 N17        -8.1971   -9.6002   40.3205 N.am      1 UNK        -0.1934 
     18 O18        -8.4520   -7.8544   41.7395 O.2       1 UNK        -0.5000 
     19 O19        -6.8661  -10.1044   42.2849 O.3       1 UNK        -0.6830 
     20 O20       -11.7612   -7.6608   36.7993 O.3       1 UNK        -0.2850 
     21 O21        -9.0493   -3.9839   38.2906 O.3       1 UNK        -0.2850 
     22 O22       -10.9866   -5.1629   36.5021 O.3       1 UNK        -0.2850 
     23 F23        -5.6032  -12.0213   37.7622 F         1 UNK        -0.1200 
     24 F24        -7.5138  -13.0586   37.7650 F         1 UNK        -0.1200 
     25 F25        -9.7499  -11.8843   41.1698 F         1 UNK        -0.1200 
     26 F26        -9.6546  -10.3718   42.7168 F         1 UNK        -0.1200 
     27 H27       -10.5306   -9.0367   38.8218 H         1 UNK         0.1150 
     28 H28        -8.0939   -5.7820   40.0964 H         1 UNK         0.1150 
     29 H29        -7.3231  -12.6337   40.5836 H         1 UNK         0.0600 
     30 H30        -5.9104  -11.5717   40.5810 H         1 UNK         0.0600 
     31 H31       -13.0076   -9.1769   36.1937 H         1 UNK         0.0300 
     32 H32       -12.6948   -9.1437   37.9245 H         1 UNK         0.0300 
     33 H33       -11.4448   -9.7190   36.7932 H         1 UNK         0.0300 
     34 H34        -8.0037   -2.3629   38.9975 H         1 UNK         0.0300 
     35 H35        -7.1566   -3.8956   39.1581 H         1 UNK         0.0300 
     36 H36        -8.5116   -3.4944   40.2439 H         1 UNK         0.0300 
     37 H37       -10.6949   -3.9837   34.8494 H         1 UNK         0.0300 
     38 H38        -9.2162   -4.3727   35.7172 H         1 UNK         0.0300 
     39 H39       -10.3678   -3.1822   36.3755 H         1 UNK         0.0300 
     40 H40        -7.2245  -11.3159   36.9134 H         1 UNK         0.1500 
     41 H41        -8.5976  -12.0137   42.7426 H         1 UNK         0.1500 
     42 H42        -7.2062   -9.2494   42.5347 H         1 UNK         0.4180 
@<TRIPOS>BOND
     1    1    3 ar   
     2    1    4 ar   
     3    1   27 1    
     4    2    3 ar   
     5    2    5 ar   
     6    2   28 1    
     7    3    8 1    
     8    4    6 ar   
     9    4   20 1    
    10    5    6 ar   
    11    5   21 1    
    12    6   22 1    
    13    7    9 1    
    14    7   14 1    
    15    7   16 2    
    16    8   17 am   BACKBONE|DICT|INTERRES
    17    8   18 2    
    18    9   10 1    
    19    9   29 1    
    20    9   30 1    
    21   10   15 1    
    22   10   17 1    
    23   10   19 1    
    24   11   20 1    
    25   11   31 1    
    26   11   32 1    
    27   11   33 1    
    28   12   21 1    
    29   12   34 1    
    30   12   35 1    
    31   12   36 1    
    32   13   22 1    
    33   13   37 1    
    34   13   38 1    
    35   13   39 1    
    36   14   23 1    
    37   14   24 1    
    38   14   40 1    
    39   15   25 1    
    40   15   26 1    
    41   15   41 1    
    42   16   17 1    
    43   19   42 1    
@<TRIPOS>SUBSTRUCTURE
     1 UNK         1 GROUP             0       ****    0 ROOT    
@<TRIPOS>MOLECULE
ZINC04179382_189
38   39    1
SMALL
USER_CHARGES


@<TRIPOS>ATOM
      1 C1         -9.8574   -7.0158   39.3998 C.ar      1 UNK        -0.1150 
      2 C2         -7.9358  -12.2292   36.5212 C.ar      1 UNK        -0.1150 
      3 C3         -7.0920  -14.1640   37.7387 C.ar      1 UNK        -0.1150 
      4 C4        -10.3213   -6.2540   38.3118 C.ar      1 UNK        -0.1150 
      5 C5         -7.6386  -12.8693   35.3019 C.ar      1 UNK        -0.1150 
      6 C6         -6.7944  -14.8021   36.5186 C.ar      1 UNK        -0.1150 
      7 C7        -10.6508   -9.0411   38.3151 C.ar      1 UNK        -0.1150 
      8 C8        -10.0061   -8.4179   39.4084 C.ar      1 UNK        -0.1150 
      9 C9         -7.6604  -12.8729   37.7510 C.ar      1 UNK         0.2000 
     10 C10       -10.9480   -6.8814   37.2070 C.ar      1 UNK         0.0850 
     11 C11       -11.1149   -8.2852   37.2102 C.ar      1 UNK         0.0850 
     12 C12        -7.0675  -14.1546   35.3004 C.ar      1 UNK         0.2200 
     13 C13        -8.9831  -10.5761   40.3699 C.2       1 UNK        -0.1150 
     14 C14        -8.4221  -11.0021   39.2213 C.2       1 UNK        -0.0970 
     15 C15        -9.4862   -9.1978   40.5731 C.2       1 UNK         0.5850 
     16 C16       -11.2780   -4.7841   36.0763 C.3       1 UNK         0.1100 
     17 C17       -11.9150  -10.2527   36.0750 C.3       1 UNK         0.1100 
     18 N18        -7.9448  -12.2849   38.9909 N.pl3     1 UNK        -0.5717 
     19 O19        -9.4466   -8.6969   41.6957 O.2       1 UNK        -0.4700 
     20 O20       -11.4179   -6.1962   36.1056 O.3       1 UNK        -0.2850 
     21 O21       -11.7331   -8.8453   36.1109 O.3       1 UNK        -0.2850 
     22 F22        -6.7834  -14.7686   34.1289 F         1 UNK        -0.2200 
     23 H23        -9.3793   -6.5180   40.2325 H         1 UNK         0.1150 
     24 H24        -8.3818  -11.2477   36.4852 H         1 UNK         0.1150 
     25 H25        -6.8754  -14.6764   38.6644 H         1 UNK         0.1150 
     26 H26       -10.1807   -5.1852   38.3496 H         1 UNK         0.1150 
     27 H27        -7.8494  -12.3766   34.3644 H         1 UNK         0.1150 
     28 H28        -6.3564  -15.7891   36.5126 H         1 UNK         0.1150 
     29 H29       -10.7902  -10.1103   38.3415 H         1 UNK         0.1150 
     30 H30        -9.0731  -11.2433   41.2136 H         1 UNK         0.1150 
     31 H31        -8.2964  -10.3267   38.3875 H         1 UNK         0.1150 
     32 H32       -11.7003   -4.4014   35.1473 H         1 UNK         0.0300 
     33 H33       -10.2291   -4.4863   36.1081 H         1 UNK         0.0300 
     34 H34       -11.8151   -4.3127   36.9006 H         1 UNK         0.0300 
     35 H35       -12.4073  -10.5266   35.1419 H         1 UNK         0.0300 
     36 H36       -12.5498  -10.5936   36.8940 H         1 UNK         0.0300 
     37 H37       -10.9609  -10.7804   36.1106 H         1 UNK         0.0300 
     38 H38        -7.8371  -12.8918   39.7923 H         1 UNK         0.3537 
@<TRIPOS>BOND
     1    1    4 ar   
     2    1    8 ar   
     3    1   23 1    
     4    2    5 ar   
     5    2    9 ar   
     6    2   24 1    
     7    3    6 ar   
     8    3    9 ar   
     9    3   25 1    
    10    4   10 ar   
    11    4   26 1    
    12    5   12 ar   
    13    5   27 1    
    14    6   12 ar   
    15    6   28 1    
    16    7    8 ar   
    17    7   11 ar   
    18    7   29 1    
    19    8   15 1    
    20    9   18 1    
    21   10   11 ar   
    22   10   20 1    
    23   11   21 1    
    24   12   22 1    
    25   13   14 2    
    26   13   15 1    
    27   13   30 1    
    28   14   18 1    
    29   14   31 1    
    30   15   19 2    
    31   16   20 1    
    32   16   32 1    
    33   16   33 1    
    34   16   34 1    
    35   17   21 1    
    36   17   35 1    
    37   17   36 1    
    38   17   37 1    
    39   18   38 1    
@<TRIPOS>SUBSTRUCTURE
     1 UNK         1 GROUP             0       ****    0 ROOT    
@<TRIPOS>MOLECULE
ZINC04179446_267
44   45    1
SMALL
USER_CHARGES


@<TRIPOS>ATOM
      1 C1        -10.4757   -8.1289   39.1699 C.ar      1 UNK        -0.1150 
      2 C2         -8.7763  -14.2206   35.1418 C.ar      1 UNK        -0.1150 
      3 C3         -8.9341  -13.5182   36.3508 C.ar      1 UNK        -0.1150 
      4 C4        -11.0078   -7.3908   38.0968 C.ar      1 UNK        -0.1150 
      5 C5        -11.3806  -10.1698   38.2102 C.ar      1 UNK        -0.1150 
      6 C6         -8.1208  -15.4555   37.5757 C.ar      1 UNK        -0.1150 
      7 C7        -10.6464   -9.5272   39.2336 C.ar      1 UNK        -0.1150 
      8 C8         -8.2904  -15.5440   35.1403 C.ar      1 UNK        -0.1150 
      9 C9         -7.9607  -16.1665   36.3670 C.ar      1 UNK        -0.1150 
     10 C10        -8.6043  -14.1314   37.5801 C.ar      1 UNK         0.2000 
     11 C11       -11.7256   -8.0387   37.0615 C.ar      1 UNK         0.0850 
     12 C12       -11.9122   -9.4389   37.1190 C.ar      1 UNK         0.0850 
     13 C13        -9.6199  -11.6842   40.1976 C.2       1 UNK        -0.1150 
     14 C14        -9.1603  -12.1729   39.0293 C.2       1 UNK        -0.0970 
     15 C15       -10.0563  -10.2810   40.3827 C.2       1 UNK         0.5850 
     16 C16        -8.1305  -16.2776   33.8207 C.3       1 UNK        -0.0650 
     17 C17        -7.4351  -17.5908   36.4027 C.3       1 UNK        -0.0650 
     18 C18       -12.1080   -5.9694   35.8964 C.3       1 UNK         0.1100 
     19 C19       -12.7927  -11.4295   36.0885 C.3       1 UNK         0.1100 
     20 N20        -8.7530  -13.4818   38.8140 N.pl3     1 UNK        -0.5717 
     21 O21        -9.9072   -9.7392   41.4770 O.2       1 UNK        -0.4700 
     22 O22       -12.2675   -7.3773   35.9786 O.3       1 UNK        -0.2850 
     23 O23       -12.6173  -10.0206   36.0851 O.3       1 UNK        -0.2850 
     24 H24        -9.9292   -7.6151   39.9490 H         1 UNK         0.1150 
     25 H25        -9.0333  -13.7323   34.2130 H         1 UNK         0.1150 
     26 H26        -9.3168  -12.5109   36.3077 H         1 UNK         0.1150 
     27 H27       -10.8481   -6.3240   38.0918 H         1 UNK         0.1150 
     28 H28       -11.5363  -11.2349   38.2790 H         1 UNK         0.1150 
     29 H29        -7.8660  -15.9339   38.5096 H         1 UNK         0.1150 
     30 H30        -9.6728  -12.3173   41.0701 H         1 UNK         0.1150 
     31 H31        -9.0691  -11.5339   38.1630 H         1 UNK         0.1150 
     32 H32        -7.0941  -16.5821   33.6754 H         1 UNK         0.0600 
     33 H33        -8.7608  -17.1666   33.7993 H         1 UNK         0.0600 
     34 H34        -8.4139  -15.6472   32.9776 H         1 UNK         0.0600 
     35 H35        -8.1534  -18.2749   35.9504 H         1 UNK         0.0600 
     36 H36        -6.4949  -17.6638   35.8559 H         1 UNK         0.0600 
     37 H37        -7.2543  -17.9252   37.4244 H         1 UNK         0.0600 
     38 H38       -12.5962   -5.6058   34.9924 H         1 UNK         0.0300 
     39 H39       -11.0552   -5.6904   35.8371 H         1 UNK         0.0300 
     40 H40       -12.5706   -5.4649   36.7459 H         1 UNK         0.0300 
     41 H41       -13.3401  -11.7237   35.1932 H         1 UNK         0.0300 
     42 H42       -13.3735  -11.7568   36.9516 H         1 UNK         0.0300 
     43 H43       -11.8356  -11.9527   36.0750 H         1 UNK         0.0300 
     44 H44        -8.6137  -14.0689   39.6243 H         1 UNK         0.3537 
@<TRIPOS>BOND
     1    1    4 ar   
     2    1    7 ar   
     3    1   24 1    
     4    2    3 ar   
     5    2    8 ar   
     6    2   25 1    
     7    3   10 ar   
     8    3   26 1    
     9    4   11 ar   
    10    4   27 1    
    11    5    7 ar   
    12    5   12 ar   
    13    5   28 1    
    14    6    9 ar   
    15    6   10 ar   
    16    6   29 1    
    17    7   15 1    
    18    8    9 ar   
    19    8   16 1    
    20    9   17 1    
    21   10   20 1    
    22   11   12 ar   
    23   11   22 1    
    24   12   23 1    
    25   13   14 2    
    26   13   15 1    
    27   13   30 1    
    28   14   20 1    
    29   14   31 1    
    30   15   21 2    
    31   16   32 1    
    32   16   33 1    
    33   16   34 1    
    34   17   35 1    
    35   17   36 1    
    36   17   37 1    
    37   18   22 1    
    38   18   38 1    
    39   18   39 1    
    40   18   40 1    
    41   19   23 1    
    42   19   41 1    
    43   19   42 1    
    44   19   43 1    
    45   20   44 1    
@<TRIPOS>SUBSTRUCTURE
     1 UNK         1 GROUP             0       ****    0 ROOT    
@<TRIPOS>MOLECULE
ZINC04179460_249
44   45    1
SMALL
USER_CHARGES


@<TRIPOS>ATOM
      1 C1         -6.6349  -13.0259   35.3663 C.ar      1 UNK        -0.1150 
      2 C2         -9.6288   -7.2584   39.2433 C.ar      1 UNK        -0.1150 
      3 C3         -6.5442  -14.4236   35.2642 C.ar      1 UNK        -0.1150 
      4 C4         -7.1633  -12.4388   36.5283 C.ar      1 UNK        -0.1150 
      5 C5        -10.2148   -6.4976   38.2150 C.ar      1 UNK        -0.1150 
      6 C6        -10.6737   -9.2630   38.3516 C.ar      1 UNK        -0.1150 
      7 C7         -9.8431   -8.6503   39.3179 C.ar      1 UNK        -0.1150 
      8 C8         -6.9835  -15.2456   36.3218 C.ar      1 UNK        -0.1150 
      9 C9         -7.5309  -14.6577   37.4933 C.ar      1 UNK        -0.1150 
     10 C10        -7.6150  -13.2442   37.5987 C.ar      1 UNK         0.2000 
     11 C11       -11.0322   -7.1157   37.2371 C.ar      1 UNK         0.0850 
     12 C12       -11.2626   -8.5088   37.3064 C.ar      1 UNK         0.0850 
     13 C13        -8.8217  -10.8441   40.2069 C.2       1 UNK        -0.1150 
     14 C14        -8.4681  -11.3521   39.0101 C.2       1 UNK        -0.0970 
     15 C15        -9.1983   -9.4275   40.4208 C.2       1 UNK         0.5850 
     16 C16        -6.8495  -16.7516   36.1691 C.3       1 UNK        -0.0650 
     17 C17        -8.0279  -15.5296   38.6430 C.3       1 UNK        -0.0650 
     18 C18       -11.4238   -5.0314   36.1020 C.3       1 UNK         0.1100 
     19 C19       -12.2684  -10.4658   36.3296 C.3       1 UNK         0.1100 
     20 N20        -8.1286  -12.6780   38.7766 N.pl3     1 UNK        -0.5717 
     21 O21        -8.9551   -8.8940   41.5023 O.2       1 UNK        -0.4700 
     22 O22       -11.6322   -6.4316   36.1998 O.3       1 UNK        -0.2850 
     23 O23       -12.0667   -9.0605   36.3302 O.3       1 UNK        -0.2850 
     24 H24        -6.2904  -12.4008   34.5556 H         1 UNK         0.1150 
     25 H25        -9.0076   -6.7671   39.9798 H         1 UNK         0.1150 
     26 H26        -6.1295  -14.8599   34.3667 H         1 UNK         0.1150 
     27 H27        -7.1955  -11.3624   36.5794 H         1 UNK         0.1150 
     28 H28       -10.0191   -5.4369   38.1992 H         1 UNK         0.1150 
     29 H29       -10.8606  -10.3223   38.4303 H         1 UNK         0.1150 
     30 H30        -8.8238  -11.4719   41.0847 H         1 UNK         0.1150 
     31 H31        -8.4401  -10.7229   38.1331 H         1 UNK         0.1150 
     32 H32        -6.3217  -17.1806   37.0212 H         1 UNK         0.0600 
     33 H33        -7.8328  -17.2163   36.0932 H         1 UNK         0.0600 
     34 H34        -6.2884  -17.0131   35.2713 H         1 UNK         0.0600 
     35 H35        -8.2186  -16.5589   38.3456 H         1 UNK         0.0600 
     36 H36        -7.2923  -15.5406   39.4471 H         1 UNK         0.0600 
     37 H37        -8.9699  -15.1507   39.0395 H         1 UNK         0.0600 
     38 H38       -11.9620   -4.6490   35.2349 H         1 UNK         0.0300 
     39 H39       -10.3682   -4.7941   35.9651 H         1 UNK         0.0300 
     40 H40       -11.8028   -4.5092   36.9812 H         1 UNK         0.0300 
     41 H41       -12.8898  -10.7381   35.4766 H         1 UNK         0.0300 
     42 H42       -12.7864  -10.7939   37.2318 H         1 UNK         0.0300 
     43 H43       -11.3250  -11.0057   36.2352 H         1 UNK         0.0300 
     44 H44        -8.2385  -13.3326   39.5372 H         1 UNK         0.3537 
@<TRIPOS>BOND
     1    1    3 ar   
     2    1    4 ar   
     3    1   24 1    
     4    2    5 ar   
     5    2    7 ar   
     6    2   25 1    
     7    3    8 ar   
     8    3   26 1    
     9    4   10 ar   
    10    4   27 1    
    11    5   11 ar   
    12    5   28 1    
    13    6    7 ar   
    14    6   12 ar   
    15    6   29 1    
    16    7   15 1    
    17    8    9 ar   
    18    8   16 1    
    19    9   10 ar   
    20    9   17 1    
    21   10   20 1    
    22   11   12 ar   
    23   11   22 1    
    24   12   23 1    
    25   13   14 2    
    26   13   15 1    
    27   13   30 1    
    28   14   20 1    
    29   14   31 1    
    30   15   21 2    
    31   16   32 1    
    32   16   33 1    
    33   16   34 1    
    34   17   35 1    
    35   17   36 1    
    36   17   37 1    
    37   18   22 1    
    38   18   38 1    
    39   18   39 1    
    40   18   40 1    
    41   19   23 1    
    42   19   41 1    
    43   19   42 1    
    44   19   43 1    
    45   20   44 1    
@<TRIPOS>SUBSTRUCTURE
     1 UNK         1 GROUP             0       ****    0 ROOT    
@<TRIPOS>MOLECULE
ZINC04179864_231
38   39    1
SMALL
USER_CHARGES


@<TRIPOS>ATOM
      1 C1         -8.0619  -15.9874   36.4055 C.ar      1 UNK        -0.1150 
      2 C2         -7.6276  -15.2982   35.2588 C.ar      1 UNK        -0.1150 
      3 C3        -10.3545   -7.7934   38.9954 C.ar      1 UNK        -0.1150 
      4 C4         -8.4801  -15.2689   37.5422 C.ar      1 UNK        -0.1150 
      5 C5        -11.0758   -7.1060   38.0022 C.ar      1 UNK        -0.1150 
      6 C6         -7.6078  -13.8913   35.2574 C.ar      1 UNK        -0.1150 
      7 C7        -11.5494   -9.8371   38.4448 C.ar      1 UNK        -0.1150 
      8 C8        -10.5748   -9.1678   39.2197 C.ar      1 UNK        -0.1150 
      9 C9         -8.4784  -13.8570   37.5496 C.ar      1 UNK         0.2000 
     10 C10       -12.0394   -7.7813   37.2137 C.ar      1 UNK         0.0850 
     11 C11       -12.2790   -9.1563   37.4387 C.ar      1 UNK         0.0850 
     12 C12        -8.0245  -13.1680   36.3917 C.ar      1 UNK         0.2200 
     13 C13        -9.4142  -11.2923   40.1085 C.2       1 UNK        -0.1150 
     14 C14        -9.2484  -11.8902   38.9124 C.2       1 UNK        -0.0970 
     15 C15        -9.7820   -9.8668   40.2760 C.2       1 UNK         0.5850 
     16 C16       -12.5394   -5.7980   35.9487 C.3       1 UNK         0.1100 
     17 C17       -13.4606  -11.1552   36.8059 C.3       1 UNK         0.1100 
     18 N18        -8.9139  -13.2252   38.7280 N.pl3     1 UNK        -0.5717 
     19 O19        -9.4094   -9.2610   41.2799 O.2       1 UNK        -0.4700 
     20 O20       -12.7765   -7.1704   36.2201 O.3       1 UNK        -0.2850 
     21 O21       -13.2313   -9.7638   36.6461 O.3       1 UNK        -0.2850 
     22 F22        -7.9540  -11.8165   36.3461 F         1 UNK        -0.2200 
     23 H23        -8.0757  -17.0681   36.4136 H         1 UNK         0.1150 
     24 H24        -7.3051  -15.8451   34.3841 H         1 UNK         0.1150 
     25 H25        -9.6221   -7.2604   39.5861 H         1 UNK         0.1150 
     26 H26        -8.8145  -15.8166   38.4107 H         1 UNK         0.1150 
     27 H27       -10.8680   -6.0565   37.8651 H         1 UNK         0.1150 
     28 H28        -7.2651  -13.3548   34.3853 H         1 UNK         0.1150 
     29 H29       -11.7336  -10.8812   38.6414 H         1 UNK         0.1150 
     30 H30        -9.2565  -11.8485   41.0198 H         1 UNK         0.1150 
     31 H31        -9.3848  -11.3349   37.9960 H         1 UNK         0.1150 
     32 H32       -13.1862   -5.4780   35.1322 H         1 UNK         0.0300 
     33 H33       -11.5080   -5.6250   35.6382 H         1 UNK         0.0300 
     34 H34       -12.7678   -5.1747   36.8141 H         1 UNK         0.0300 
     35 H35       -14.2123  -11.4797   36.0866 H         1 UNK         0.0300 
     36 H36       -13.8389  -11.3839   37.8030 H         1 UNK         0.0300 
     37 H37       -12.5547  -11.7337   36.6190 H         1 UNK         0.0300 
     38 H38        -8.9459  -13.8231   39.5405 H         1 UNK         0.3537 
@<TRIPOS>BOND
     1    1    2 ar   
     2    1    4 ar   
     3    1   23 1    
     4    2    6 ar   
     5    2   24 1    
     6    3    5 ar   
     7    3    8 ar   
     8    3   25 1    
     9    4    9 ar   
    10    4   26 1    
    11    5   10 ar   
    12    5   27 1    
    13    6   12 ar   
    14    6   28 1    
    15    7    8 ar   
    16    7   11 ar   
    17    7   29 1    
    18    8   15 1    
    19    9   12 ar   
    20    9   18 1    
    21   10   11 ar   
    22   10   20 1    
    23   11   21 1    
    24   12   22 1    
    25   13   14 2    
    26   13   15 1    
    27   13   30 1    
    28   14   18 1    
    29   14   31 1    
    30   15   19 2    
    31   16   20 1    
    32   16   32 1    
    33   16   33 1    
    34   16   34 1    
    35   17   21 1    
    36   17   35 1    
    37   17   36 1    
    38   17   37 1    
    39   18   38 1    
@<TRIPOS>SUBSTRUCTURE
     1 UNK         1 GROUP             0       ****    0 ROOT    
@<TRIPOS>MOLECULE
ZINC04179966_185
38   39    1
SMALL
USER_CHARGES


@<TRIPOS>ATOM
      1 C1         -9.8617   -7.0157   39.3976 C.ar      1 UNK        -0.1150 
      2 C2         -7.9210  -12.2266   36.5269 C.ar      1 UNK        -0.1150 
      3 C3         -7.0919  -14.1656   37.7472 C.ar      1 UNK        -0.1150 
      4 C4        -10.3243   -6.2551   38.3081 C.ar      1 UNK        -0.1150 
      5 C5         -7.6165  -12.8651   35.3088 C.ar      1 UNK        -0.1150 
      6 C6         -6.7878  -14.8030   36.5286 C.ar      1 UNK        -0.1150 
      7 C7        -10.6486   -9.0429   38.3117 C.ar      1 UNK        -0.1150 
      8 C8        -10.0080   -8.4181   39.4064 C.ar      1 UNK        -0.1150 
      9 C9         -7.6563  -12.8729   37.7577 C.ar      1 UNK         0.2000 
     10 C10       -10.9467   -6.8843   37.2018 C.ar      1 UNK         0.0850 
     11 C11       -11.1104   -8.2885   37.2048 C.ar      1 UNK         0.0850 
     12 C12        -7.0493  -14.1525   35.3087 C.ar      1 UNK         0.1800 
     13 C13        -8.9875  -10.5754   40.3723 C.2       1 UNK        -0.1150 
     14 C14        -8.4233  -11.0025   39.2256 C.2       1 UNK        -0.0970 
     15 C15        -9.4903   -9.1967   40.5729 C.2       1 UNK         0.5850 
     16 C16       -11.2839   -4.7879   36.0717 C.3       1 UNK         0.1100 
     17 C17       -11.8986  -10.2586   36.0659 C.3       1 UNK         0.1100 
     18 N18        -7.9470  -12.2859   38.9966 N.pl3     1 UNK        -0.5717 
     19 O19        -9.4527   -8.6946   41.6951 O.2       1 UNK        -0.4700 
     20 O20       -11.4151   -6.2008   36.0988 O.3       1 UNK        -0.2850 
     21 O21       -11.7240   -8.8503   36.1038 O.3       1 UNK        -0.2850 
     22 Cl22       -6.6782  -14.9331   33.8168 Cl        1 UNK        -0.1800 
     23 H23        -9.3867   -6.5164   40.2311 H         1 UNK         0.1150 
     24 H24        -8.3634  -11.2436   36.4893 H         1 UNK         0.1150 
     25 H25        -6.8819  -14.6789   38.6736 H         1 UNK         0.1150 
     26 H26       -10.1863   -5.1860   38.3457 H         1 UNK         0.1150 
     27 H27        -7.8198  -12.3673   34.3720 H         1 UNK         0.1150 
     28 H28        -6.3526  -15.7915   36.5276 H         1 UNK         0.1150 
     29 H29       -10.7864  -10.1122   38.3381 H         1 UNK         0.1150 
     30 H30        -9.0810  -11.2419   41.2161 H         1 UNK         0.1150 
     31 H31        -8.2945  -10.3272   38.3922 H         1 UNK         0.1150 
     32 H32       -11.7058   -4.4064   35.1420 H         1 UNK         0.0300 
     33 H33       -10.2369   -4.4838   36.1067 H         1 UNK         0.0300 
     34 H34       -11.8258   -4.3209   36.8952 H         1 UNK         0.0300 
     35 H35       -12.3852  -10.5341   35.1305 H         1 UNK         0.0300 
     36 H36       -12.5356  -10.6034   36.8816 H         1 UNK         0.0300 
     37 H37       -10.9421  -10.7817   36.1052 H         1 UNK         0.0300 
     38 H38        -7.8448  -12.8939   39.7980 H         1 UNK         0.3537 
@<TRIPOS>BOND
     1    1    4 ar   
     2    1    8 ar   
     3    1   23 1    
     4    2    5 ar   
     5    2    9 ar   
     6    2   24 1    
     7    3    6 ar   
     8    3    9 ar   
     9    3   25 1    
    10    4   10 ar   
    11    4   26 1    
    12    5   12 ar   
    13    5   27 1    
    14    6   12 ar   
    15    6   28 1    
    16    7    8 ar   
    17    7   11 ar   
    18    7   29 1    
    19    8   15 1    
    20    9   18 1    
    21   10   11 ar   
    22   10   20 1    
    23   11   21 1    
    24   12   22 1    
    25   13   14 2    
    26   13   15 1    
    27   13   30 1    
    28   14   18 1    
    29   14   31 1    
    30   15   19 2    
    31   16   20 1    
    32   16   32 1    
    33   16   33 1    
    34   16   34 1    
    35   17   21 1    
    36   17   35 1    
    37   17   36 1    
    38   17   37 1    
    39   18   38 1    
@<TRIPOS>SUBSTRUCTURE
     1 UNK         1 GROUP             0       ****    0 ROOT    
@<TRIPOS>MOLECULE
ZINC04179983_275
38   39    1
SMALL
USER_CHARGES


@<TRIPOS>ATOM
      1 C1         -8.8853  -13.9901   35.2318 C.ar      1 UNK        -0.1150 
      2 C2        -10.4955   -7.8482   39.1837 C.ar      1 UNK        -0.1150 
      3 C3         -9.0117  -13.2698   36.4359 C.ar      1 UNK        -0.1150 
      4 C4        -11.0920   -7.1529   38.1159 C.ar      1 UNK        -0.1150 
      5 C5         -8.3284  -15.2830   35.2374 C.ar      1 UNK        -0.1150 
      6 C6        -11.4369   -9.9280   38.3501 C.ar      1 UNK        -0.1150 
      7 C7         -8.0273  -15.1349   37.6531 C.ar      1 UNK        -0.1150 
      8 C8        -10.6509   -9.2442   39.3060 C.ar      1 UNK        -0.1150 
      9 C9         -8.5797  -13.8369   37.6584 C.ar      1 UNK         0.2000 
     10 C10       -11.8608   -7.8421   37.1460 C.ar      1 UNK         0.0850 
     11 C11       -12.0349   -9.2400   37.2653 C.ar      1 UNK         0.0850 
     12 C12        -7.8997  -15.8549   36.4493 C.ar      1 UNK         0.1800 
     13 C13        -9.5269  -11.3507   40.2694 C.2       1 UNK        -0.1150 
     14 C14        -9.1251  -11.8606   39.0885 C.2       1 UNK        -0.0970 
     15 C15        -9.9879   -9.9537   40.4428 C.2       1 UNK         0.5850 
     16 C16       -12.3218   -5.8189   35.9293 C.3       1 UNK         0.1100 
     17 C17       -12.9891  -11.2660   36.3798 C.3       1 UNK         0.1100 
     18 N18        -8.6929  -13.1636   38.8842 N.pl3     1 UNK        -0.5717 
     19 O19        -9.7959   -9.3798   41.5137 O.2       1 UNK        -0.4700 
     20 O20       -12.4649   -7.2240   36.0706 O.3       1 UNK        -0.2850 
     21 O21       -12.7929   -9.8625   36.2945 O.3       1 UNK        -0.2850 
     22 Cl22       -7.2189  -17.4396   36.4608 Cl        1 UNK        -0.1800 
     23 H23        -9.2172  -13.5491   34.3031 H         1 UNK         0.1150 
     24 H24        -9.9096   -7.3037   39.9117 H         1 UNK         0.1150 
     25 H25        -9.4505  -12.2846   36.3959 H         1 UNK         0.1150 
     26 H26       -10.9405   -6.0863   38.0632 H         1 UNK         0.1150 
     27 H27        -8.2296  -15.8371   34.3150 H         1 UNK         0.1150 
     28 H28       -11.5790  -10.9907   38.4666 H         1 UNK         0.1150 
     29 H29        -7.6915  -15.5915   38.5718 H         1 UNK         0.1150 
     30 H30        -9.5107  -11.9591   41.1608 H         1 UNK         0.1150 
     31 H31        -9.1045  -11.2434   38.2021 H         1 UNK         0.1150 
     32 H32       -12.8583   -5.4915   35.0390 H         1 UNK         0.0300 
     33 H33       -11.2760   -5.5347   35.8063 H         1 UNK         0.0300 
     34 H34       -12.7449   -5.2870   36.7824 H         1 UNK         0.0300 
     35 H35       -13.5956  -11.5949   35.5361 H         1 UNK         0.0300 
     36 H36       -13.5200  -11.5388   37.2926 H         1 UNK         0.0300 
     37 H37       -12.0427  -11.8063   36.3344 H         1 UNK         0.0300 
     38 H38        -8.4850  -13.7178   39.7042 H         1 UNK         0.3537 
@<TRIPOS>BOND
     1    1    3 ar   
     2    1    5 ar   
     3    1   23 1    
     4    2    4 ar   
     5    2    8 ar   
     6    2   24 1    
     7    3    9 ar   
     8    3   25 1    
     9    4   10 ar   
    10    4   26 1    
    11    5   12 ar   
    12    5   27 1    
    13    6    8 ar   
    14    6   11 ar   
    15    6   28 1    
    16    7    9 ar   
    17    7   12 ar   
    18    7   29 1    
    19    8   15 1    
    20    9   18 1    
    21   10   11 ar   
    22   10   20 1    
    23   11   21 1    
    24   12   22 1    
    25   13   14 2    
    26   13   15 1    
    27   13   30 1    
    28   14   18 1    
    29   14   31 1    
    30   15   19 2    
    31   16   20 1    
    32   16   32 1    
    33   16   33 1    
    34   16   34 1    
    35   17   21 1    
    36   17   35 1    
    37   17   36 1    
    38   17   37 1    
    39   18   38 1    
@<TRIPOS>SUBSTRUCTURE
     1 UNK         1 GROUP             0       ****    0 ROOT    
@<TRIPOS>MOLECULE
ZINC04184010_1
48   50    1
SMALL
USER_CHARGES


@<TRIPOS>ATOM
      1 C1         -4.2968   -8.5214   36.5661 C.ar      1 UNK        -0.1150 
      2 C2         -4.2118   -7.1652   36.9230 C.ar      1 UNK        -0.1150 
      3 C3         -4.7880   -9.4577   37.4926 C.ar      1 UNK        -0.1150 
      4 C4         -4.6390   -6.7442   38.1956 C.ar      1 UNK        -0.1150 
      5 C5         -7.7182   -5.8982   38.6468 C.ar      1 UNK        -0.1150 
      6 C6         -6.7113   -3.8677   39.5417 C.ar      1 UNK        -0.1150 
      7 C7         -6.8846   -5.2661   39.5958 C.ar      1 UNK        -0.1150 
      8 C8         -5.2183   -9.0437   38.7704 C.ar      1 UNK        -0.1150 
      9 C9         -5.1844   -7.6677   39.1249 C.ar      1 UNK        -0.0383 
     10 C10        -8.3305   -5.1543   37.6106 C.ar      1 UNK         0.0850 
     11 C11        -7.3239   -3.1012   38.5220 C.ar      1 UNK         0.0850 
     12 C12        -8.1200   -3.7568   37.5566 C.ar      1 UNK         0.0850 
     13 C13        -6.2355   -6.0530   40.7050 C.2       1 UNK         0.6150 
     14 C14        -5.6668  -10.1113   39.7562 C.3       1 UNK        -0.0050 
     15 C15        -6.2338   -9.5501   41.0667 C.3       1 UNK        -0.1200 
     16 C16        -5.5470   -8.2476   41.5125 C.3       1 UNK         0.0100 
     17 C17        -4.0833   -8.4560   41.9477 C.3       1 UNK        -0.1800 
     18 C18        -9.3112   -7.1252   36.6411 C.3       1 UNK         0.1100 
     19 C19        -6.4235   -1.0442   39.3818 C.3       1 UNK         0.1100 
     20 C20        -8.0121   -3.0639   35.3363 C.3       1 UNK         0.1100 
     21 N21        -5.6454   -7.2529   40.4259 N.am      1 UNK        -0.0317 
     22 O22        -6.2405   -5.5630   41.8363 O.2       1 UNK        -0.5000 
     23 O23        -9.1325   -5.7168   36.6384 O.3       1 UNK        -0.2850 
     24 O24        -7.1815   -1.7343   38.4001 O.3       1 UNK        -0.2850 
     25 O25        -8.7105   -3.0119   36.5685 O.3       1 UNK        -0.2850 
     26 H26        -3.9668   -8.8462   35.5898 H         1 UNK         0.1150 
     27 H27        -3.8147   -6.4455   36.2216 H         1 UNK         0.1150 
     28 H28        -4.8201  -10.5035   37.2222 H         1 UNK         0.1150 
     29 H29        -4.5420   -5.6968   38.4413 H         1 UNK         0.1150 
     30 H30        -7.8637   -6.9647   38.7243 H         1 UNK         0.1150 
     31 H31        -6.0957   -3.4046   40.2984 H         1 UNK         0.1150 
     32 H32        -6.3964  -10.7694   39.2827 H         1 UNK         0.0600 
     33 H33        -4.7953  -10.7272   39.9816 H         1 UNK         0.0600 
     34 H34        -7.2913   -9.3301   40.9116 H         1 UNK         0.0600 
     35 H35        -6.1999  -10.3063   41.8520 H         1 UNK         0.0600 
     36 H36        -6.0904   -7.9167   42.4005 H         1 UNK         0.0600 
     37 H37        -3.4558   -8.8022   41.1258 H         1 UNK         0.0600 
     38 H38        -4.0133   -9.1901   42.7507 H         1 UNK         0.0600 
     39 H39        -3.6541   -7.5246   42.3188 H         1 UNK         0.0600 
     40 H40        -9.9393   -7.4085   35.7968 H         1 UNK         0.0300 
     41 H41        -9.8117   -7.4611   37.5502 H         1 UNK         0.0300 
     42 H42        -8.3599   -7.6492   36.5349 H         1 UNK         0.0300 
     43 H43        -6.4349    0.0228   39.1594 H         1 UNK         0.0300 
     44 H44        -5.3826   -1.3701   39.3815 H         1 UNK         0.0300 
     45 H45        -6.8458   -1.1764   40.3790 H         1 UNK         0.0300 
     46 H46        -8.5100   -2.4239   34.6082 H         1 UNK         0.0300 
     47 H47        -7.9843   -4.0751   34.9292 H         1 UNK         0.0300 
     48 H48        -6.9881   -2.7060   35.4523 H         1 UNK         0.0300 
@<TRIPOS>BOND
     1    1    2 ar   
     2    1    3 ar   
     3    1   26 1    
     4    2    4 ar   
     5    2   27 1    
     6    3    8 ar   
     7    3   28 1    
     8    4    9 ar   
     9    4   29 1    
    10    5    7 ar   
    11    5   10 ar   
    12    5   30 1    
    13    6    7 ar   
    14    6   11 ar   
    15    6   31 1    
    16    7   13 1    
    17    8    9 ar   
    18    8   14 1    
    19    9   21 1    
    20   10   12 ar   
    21   10   23 1    
    22   11   12 ar   
    23   11   24 1    
    24   12   25 1    
    25   13   21 am   BACKBONE|DICT|INTERRES
    26   13   22 2    
    27   14   15 1    
    28   14   32 1    
    29   14   33 1    
    30   15   16 1    
    31   15   34 1    
    32   15   35 1    
    33   16   17 1    
    34   16   21 1    
    35   16   36 1    
    36   17   37 1    
    37   17   38 1    
    38   17   39 1    
    39   18   23 1    
    40   18   40 1    
    41   18   41 1    
    42   18   42 1    
    43   19   24 1    
    44   19   43 1    
    45   19   44 1    
    46   19   45 1    
    47   20   25 1    
    48   20   46 1    
    49   20   47 1    
    50   20   48 1    
@<TRIPOS>SUBSTRUCTURE
     1 UNK         1 GROUP             0       ****    0 ROOT    
@<TRIPOS>MOLECULE
ZINC04184011_21
48   50    1
SMALL
USER_CHARGES


@<TRIPOS>ATOM
      1 C1         -3.9672   -8.1487   36.6502 C.ar      1 UNK        -0.1150 
      2 C2         -3.8502   -6.8472   37.1673 C.ar      1 UNK        -0.1150 
      3 C3         -4.6144   -9.1445   37.4028 C.ar      1 UNK        -0.1150 
      4 C4         -4.3936   -6.5390   38.4278 C.ar      1 UNK        -0.1150 
      5 C5         -6.7643   -3.8606   39.5336 C.ar      1 UNK        -0.1150 
      6 C6         -7.6781   -5.9279   38.6259 C.ar      1 UNK        -0.1150 
      7 C7         -6.8978   -5.2630   39.5974 C.ar      1 UNK        -0.1150 
      8 C8         -5.1624   -8.8444   38.6670 C.ar      1 UNK        -0.1150 
      9 C9         -5.0822   -7.5231   39.1837 C.ar      1 UNK        -0.0383 
     10 C10        -7.3587   -3.1235   38.4820 C.ar      1 UNK         0.0850 
     11 C11        -8.2730   -5.2141   37.5588 C.ar      1 UNK         0.0850 
     12 C12        -8.0948   -3.8112   37.4917 C.ar      1 UNK         0.0850 
     13 C13        -6.2628   -6.0224   40.7355 C.2       1 UNK         0.6150 
     14 C14        -5.8013   -9.9725   39.4616 C.3       1 UNK        -0.0050 
     15 C15        -6.4168   -9.5244   40.7943 C.3       1 UNK        -0.1200 
     16 C16        -5.6391   -8.3571   41.4277 C.3       1 UNK         0.0100 
     17 C17        -6.1322   -8.1130   42.8728 C.3       1 UNK        -0.1800 
     18 C18        -6.5921   -1.0282   39.3775 C.3       1 UNK         0.1100 
     19 C19        -9.1772   -7.2256   36.5952 C.3       1 UNK         0.1100 
     20 C20        -8.0030   -3.2412   35.2270 C.3       1 UNK         0.1100 
     21 N21        -5.6577   -7.2206   40.4693 N.am      1 UNK        -0.0317 
     22 O22        -6.2671   -5.4901   41.8460 O.2       1 UNK        -0.5000 
     23 O23        -7.2510   -1.7542   38.3511 O.3       1 UNK        -0.2850 
     24 O24        -9.0339   -5.8134   36.5754 O.3       1 UNK        -0.2850 
     25 O25        -8.6596   -3.0840   36.4744 O.3       1 UNK        -0.2850 
     26 H26        -3.5481   -8.3871   35.6832 H         1 UNK         0.1150 
     27 H27        -3.3407   -6.0831   36.5978 H         1 UNK         0.1150 
     28 H28        -4.6790  -10.1484   37.0081 H         1 UNK         0.1150 
     29 H29        -4.2769   -5.5319   38.8018 H         1 UNK         0.1150 
     30 H30        -6.1914   -3.3703   40.3065 H         1 UNK         0.1150 
     31 H31        -7.7982   -6.9966   38.7125 H         1 UNK         0.1150 
     32 H32        -6.5493  -10.4795   38.8507 H         1 UNK         0.0600 
     33 H33        -5.0176  -10.7041   39.6632 H         1 UNK         0.0600 
     34 H34        -7.4431   -9.1979   40.6187 H         1 UNK         0.0600 
     35 H35        -6.4827  -10.3770   41.4713 H         1 UNK         0.0600 
     36 H36        -4.5936   -8.6583   41.5167 H         1 UNK         0.0600 
     37 H37        -7.1732   -7.7890   42.9020 H         1 UNK         0.0600 
     38 H38        -5.5261   -7.3632   43.3828 H         1 UNK         0.0600 
     39 H39        -6.0608   -9.0240   43.4673 H         1 UNK         0.0600 
     40 H40        -6.6346    0.0363   39.1477 H         1 UNK         0.0300 
     41 H41        -5.5404   -1.3076   39.4511 H         1 UNK         0.0300 
     42 H42        -7.0754   -1.1760   40.3444 H         1 UNK         0.0300 
     43 H43        -9.7723   -7.5374   35.7370 H         1 UNK         0.0300 
     44 H44        -9.6965   -7.5600   37.4943 H         1 UNK         0.0300 
     45 H45        -8.2106   -7.7269   36.5260 H         1 UNK         0.0300 
     46 H46        -8.4155   -2.5329   34.5092 H         1 UNK         0.0300 
     47 H47        -8.1363   -4.2423   34.8178 H         1 UNK         0.0300 
     48 H48        -6.9343   -3.0410   35.3166 H         1 UNK         0.0300 
@<TRIPOS>BOND
     1    1    2 ar   
     2    1    3 ar   
     3    1   26 1    
     4    2    4 ar   
     5    2   27 1    
     6    3    8 ar   
     7    3   28 1    
     8    4    9 ar   
     9    4   29 1    
    10    5    7 ar   
    11    5   10 ar   
    12    5   30 1    
    13    6    7 ar   
    14    6   11 ar   
    15    6   31 1    
    16    7   13 1    
    17    8    9 ar   
    18    8   14 1    
    19    9   21 1    
    20   10   12 ar   
    21   10   23 1    
    22   11   12 ar   
    23   11   24 1    
    24   12   25 1    
    25   13   21 am   BACKBONE|DICT|INTERRES
    26   13   22 2    
    27   14   15 1    
    28   14   32 1    
    29   14   33 1    
    30   15   16 1    
    31   15   34 1    
    32   15   35 1    
    33   16   17 1    
    34   16   21 1    
    35   16   36 1    
    36   17   37 1    
    37   17   38 1    
    38   17   39 1    
    39   18   23 1    
    40   18   40 1    
    41   18   41 1    
    42   18   42 1    
    43   19   24 1    
    44   19   43 1    
    45   19   44 1    
    46   19   45 1    
    47   20   25 1    
    48   20   46 1    
    49   20   47 1    
    50   20   48 1    
@<TRIPOS>SUBSTRUCTURE
     1 UNK         1 GROUP             0       ****    0 ROOT    
@<TRIPOS>MOLECULE
ZINC04195266_20
45   48    1
SMALL
USER_CHARGES


@<TRIPOS>ATOM
      1 C1         -5.7776   -7.6363   35.9482 C.ar      1 UNK         0.0055 
      2 C2         -6.6068   -8.6909   35.5219 C.ar      1 UNK        -0.3011 
      3 C3         -5.0759   -7.7401   37.1655 C.ar      1 UNK        -0.4461 
      4 C4         -6.7405   -9.8468   36.3137 C.ar      1 UNK        -0.1407 
      5 C5         -7.6849   -5.4491   39.2300 C.ar      1 UNK        -0.1150 
      6 C6         -8.7574   -7.5487   38.6318 C.ar      1 UNK        -0.1150 
      7 C7         -7.9687   -6.7959   39.5226 C.ar      1 UNK         0.0000 
      8 C8         -5.1964   -8.8815   37.9858 C.ar      1 UNK         0.6314 
      9 C9         -8.1656   -4.8404   38.0448 C.ar      1 UNK         0.0850 
     10 C10        -9.2524   -6.9668   37.4421 C.ar      1 UNK         0.0850 
     11 C11        -8.9363   -5.6222   37.1364 C.ar      1 UNK         0.0850 
     12 C12        -6.0512   -9.9319   37.5375 C.ar      1 UNK        -0.1027 
     13 C13        -7.3940   -7.4154   40.7123 C.2       1 UNK         0.5614 
     14 C14        -6.5830   -8.9748   41.8776 C.2       1 UNK         0.4464 
     15 C15        -4.9918  -10.2475   39.7357 C.2       1 UNK         0.4683 
     16 C16        -7.2031   -2.7185   38.6815 C.3       1 UNK         0.1100 
     17 C17       -10.4521   -8.9681   36.8477 C.3       1 UNK         0.1100 
     18 C18        -8.6487   -4.2465   35.1877 C.3       1 UNK         0.1100 
     19 C19        -6.1332  -10.3650   42.1984 C.3       1 UNK         0.1625 
     20 N20        -4.5853   -9.0850   39.2170 N.2       1 UNK        -0.5991 
     21 N21        -6.8253   -6.8300   41.7710 N.2       1 UNK        -0.3751 
     22 N22        -6.2986   -7.8492   42.5343 N.2       1 UNK        -0.3751 
     23 O23        -7.3286   -8.7717   40.7610 O.3       1 UNK        -0.3726 
     24 O24        -7.9267   -3.5120   37.7513 O.3       1 UNK        -0.2850 
     25 O25       -10.0246   -7.6536   36.5264 O.3       1 UNK        -0.2850 
     26 O26        -9.4459   -5.1426   35.9470 O.3       1 UNK        -0.2850 
     27 S27        -6.0724  -11.2245   38.7334 S.3       1 UNK        -0.0839 
     28 S28        -4.5603  -10.7613   41.3593 S.3       1 UNK        -0.3200 
     29 H29        -5.6825   -6.7455   35.3426 H         1 UNK         0.1296 
     30 H30        -7.1497   -8.6040   34.5892 H         1 UNK         0.1749 
     31 H31        -4.4413   -6.9316   37.4948 H         1 UNK         0.2114 
     32 H32        -7.3783  -10.6573   35.9933 H         1 UNK         0.2050 
     33 H33        -7.0789   -4.9040   39.9375 H         1 UNK         0.1150 
     34 H34        -8.9583   -8.5809   38.8710 H         1 UNK         0.1150 
     35 H35        -7.1299   -1.6992   38.3021 H         1 UNK         0.0300 
     36 H36        -6.1871   -3.0909   38.8189 H         1 UNK         0.0300 
     37 H37        -7.7083   -2.6732   39.6474 H         1 UNK         0.0300 
     38 H38       -11.0920   -9.3411   36.0484 H         1 UNK         0.0300 
     39 H39       -11.0338   -8.9838   37.7703 H         1 UNK         0.0300 
     40 H40        -9.6086   -9.6524   36.9397 H         1 UNK         0.0300 
     41 H41        -8.9121   -4.3418   34.1346 H         1 UNK         0.0300 
     42 H42        -7.5827   -4.4610   35.2803 H         1 UNK         0.0300 
     43 H43        -8.8368   -3.2122   35.4759 H         1 UNK         0.0300 
     44 H44        -6.0070  -10.4637   43.2762 H         1 UNK         0.0600 
     45 H45        -6.9026  -11.0713   41.8878 H         1 UNK         0.0600 
@<TRIPOS>BOND
     1    1    2 ar   
     2    1    3 ar   
     3    1   29 1    
     4    2    4 ar   
     5    2   30 1    
     6    3    8 ar   
     7    3   31 1    
     8    4   12 ar   
     9    4   32 1    
    10    5    7 ar   
    11    5    9 ar   
    12    5   33 1    
    13    6    7 ar   
    14    6   10 ar   
    15    6   34 1    
    16    7   13 1    
    17    8   12 ar   
    18    8   20 1    
    19    9   11 ar   
    20    9   24 1    
    21   10   11 ar   
    22   10   25 1    
    23   11   26 1    
    24   12   27 1    
    25   13   21 2    
    26   13   23 1    
    27   14   19 1    
    28   14   22 2    
    29   14   23 1    
    30   15   20 2    
    31   15   27 1    
    32   15   28 1    
    33   16   24 1    
    34   16   35 1    
    35   16   36 1    
    36   16   37 1    
    37   17   25 1    
    38   17   38 1    
    39   17   39 1    
    40   17   40 1    
    41   18   26 1    
    42   18   41 1    
    43   18   42 1    
    44   18   43 1    
    45   19   28 1    
    46   19   44 1    
    47   19   45 1    
    48   21   22 1    
@<TRIPOS>SUBSTRUCTURE
     1 UNK         1 GROUP             0       ****    0 ROOT    
@<TRIPOS>MOLECULE
ZINC04240465_10
42   44    1
SMALL
USER_CHARGES


@<TRIPOS>ATOM
      1 C1         -6.6710   -3.9770   39.5229 C.ar      1 UNK        -0.1150 
      2 C2         -7.7992   -5.9579   38.6573 C.ar      1 UNK        -0.1150 
      3 C3         -6.8995   -5.3676   39.5725 C.ar      1 UNK        -0.1150 
      4 C4         -5.1638   -9.3053   39.2031 C.ar      1 UNK        -0.1150 
      5 C5         -5.2874   -7.9228   39.0916 C.ar      1 UNK        -0.0383 
      6 C6         -7.2928   -3.1767   38.5351 C.ar      1 UNK         0.0850 
      7 C7         -8.4210   -5.1790   37.6527 C.ar      1 UNK         0.0850 
      8 C8         -8.1549   -3.7919   37.6000 C.ar      1 UNK         0.0850 
      9 C9         -4.7727  -10.1053   38.1161 C.ar      1 UNK         0.1300 
     10 C10        -4.9277   -7.2746   37.8856 C.ar      1 UNK         0.1300 
     11 C11        -4.4744   -9.4747   36.8894 C.ar      1 UNK         0.1300 
     12 C12        -4.5399   -8.0656   36.7800 C.ar      1 UNK         0.1300 
     13 C13        -6.2453   -6.1875   40.6484 C.2       1 UNK         0.6150 
     14 C14        -5.4552   -9.7683   40.6023 C.3       1 UNK        -0.0050 
     15 C15        -5.6115   -8.4388   41.3735 C.3       1 UNK        -0.0500 
     16 C16        -6.2883   -1.1634   39.3815 C.3       1 UNK         0.1100 
     17 C17        -9.5313   -7.0928   36.7055 C.3       1 UNK         0.1100 
     18 C18        -8.0272   -2.9777   35.4273 C.3       1 UNK         0.1100 
     19 N19        -5.7012   -7.3924   40.3444 N.am      1 UNK        -0.0317 
     20 O20        -6.2294   -5.7471   41.7979 O.2       1 UNK        -0.5000 
     21 O21        -7.1022   -1.8152   38.4187 O.3       1 UNK        -0.2850 
     22 O22        -9.2819   -5.6958   36.7061 O.3       1 UNK        -0.2850 
     23 O23        -8.7591   -3.0235   36.6395 O.3       1 UNK        -0.2850 
     24 F24        -4.6770  -11.4493   38.2500 F         1 UNK        -0.1300 
     25 F25        -4.9022   -5.9263   37.7782 F         1 UNK        -0.1300 
     26 F26        -4.1009  -10.2192   35.8211 F         1 UNK        -0.1300 
     27 F27        -4.2125   -7.4674   35.6094 F         1 UNK        -0.1300 
     28 H28        -6.0055   -3.5463   40.2561 H         1 UNK         0.1150 
     29 H29        -7.9945   -7.0158   38.7369 H         1 UNK         0.1150 
     30 H30        -6.3770  -10.3513   40.6114 H         1 UNK         0.0600 
     31 H31        -4.6459  -10.3839   40.9977 H         1 UNK         0.0600 
     32 H32        -6.4833   -8.4574   42.0305 H         1 UNK         0.0600 
     33 H33        -4.7328   -8.2414   41.9896 H         1 UNK         0.0600 
     34 H34        -6.2692   -0.0944   39.1708 H         1 UNK         0.0300 
     35 H35        -5.2600   -1.5252   39.3444 H         1 UNK         0.0300 
     36 H36        -6.6830   -1.2925   40.3902 H         1 UNK         0.0300 
     37 H37       -10.2066   -7.3348   35.8850 H         1 UNK         0.0300 
     38 H38       -10.0108   -7.4128   37.6315 H         1 UNK         0.0300 
     39 H39        -8.6131   -7.6623   36.5552 H         1 UNK         0.0300 
     40 H40        -8.5430   -2.3357   34.7134 H         1 UNK         0.0300 
     41 H41        -7.9340   -3.9692   34.9820 H         1 UNK         0.0300 
     42 H42        -7.0277   -2.5698   35.5848 H         1 UNK         0.0300 
@<TRIPOS>BOND
     1    1    3 ar   
     2    1    6 ar   
     3    1   28 1    
     4    2    3 ar   
     5    2    7 ar   
     6    2   29 1    
     7    3   13 1    
     8    4    5 ar   
     9    4    9 ar   
    10    4   14 1    
    11    5   10 ar   
    12    5   19 1    
    13    6    8 ar   
    14    6   21 1    
    15    7    8 ar   
    16    7   22 1    
    17    8   23 1    
    18    9   11 ar   
    19    9   24 1    
    20   10   12 ar   
    21   10   25 1    
    22   11   12 ar   
    23   11   26 1    
    24   12   27 1    
    25   13   19 am   BACKBONE|DICT|INTERRES
    26   13   20 2    
    27   14   15 1    
    28   14   30 1    
    29   14   31 1    
    30   15   19 1    
    31   15   32 1    
    32   15   33 1    
    33   16   21 1    
    34   16   34 1    
    35   16   35 1    
    36   16   36 1    
    37   17   22 1    
    38   17   37 1    
    39   17   38 1    
    40   17   39 1    
    41   18   23 1    
    42   18   40 1    
    43   18   41 1    
    44   18   42 1    
@<TRIPOS>SUBSTRUCTURE
     1 UNK         1 GROUP             0       ****    0 ROOT    
@<TRIPOS>MOLECULE
ZINC04245244_21
41   43    1
SMALL
USER_CHARGES


@<TRIPOS>ATOM
      1 C1         -6.8919  -13.8719   37.7788 C.ar      1 UNK        -0.1150 
      2 C2         -7.8000  -11.9364   36.6177 C.ar      1 UNK        -0.1150 
      3 C3         -6.6919  -14.5184   36.5429 C.ar      1 UNK        -0.1150 
      4 C4         -7.5995  -12.5823   35.3822 C.ar      1 UNK        -0.1150 
      5 C5         -7.4327  -12.2718   40.4111 C.2       1 UNK        -0.1540 
      6 C6         -7.8831  -11.1892   41.2186 C.2       1 UNK        -0.1540 
      7 C7        -10.3434   -8.7955   38.5655 C.ar      1 UNK        -0.1150 
      8 C8         -9.7439   -6.0933   38.1581 C.ar      1 UNK        -0.1150 
      9 C9         -7.4492  -12.5734   37.8317 C.ar      1 UNK        -0.4134 
     10 C10        -9.4927   -8.1369   39.4834 C.ar      1 UNK        -0.1150 
     11 C11        -9.2065   -6.7599   39.2779 C.ar      1 UNK         0.1800 
     12 C12       -10.8747   -8.1298   37.4359 C.ar      1 UNK         0.0850 
     13 C13       -10.5754   -6.7664   37.2303 C.ar      1 UNK         0.0850 
     14 C14        -7.0459  -13.8745   35.3436 C.ar      1 UNK         0.1800 
     15 C15        -7.6616  -11.9064   39.1137 C.2       1 UNK         0.5364 
     16 C16        -8.3624  -10.2352   40.3616 C.2       1 UNK         0.0080 
     17 C17        -8.9440   -8.9181   40.6373 C.2       1 UNK         0.7000 
     18 C18       -11.8978  -10.1429   36.5991 C.3       1 UNK         0.1100 
     19 C19       -10.8225   -4.8029   35.8602 C.3       1 UNK         0.1100 
     20 N20        -8.3940   -6.0165   40.1403 N.pl3     1 UNK        -0.9000 
     21 O21        -8.9415   -8.4816   41.7902 O.2       1 UNK        -0.4700 
     22 O22        -8.2141  -10.6644   39.0760 O.3       1 UNK        -0.1900 
     23 O23       -11.6832   -8.7427   36.5015 O.3       1 UNK        -0.2850 
     24 O24       -11.1235   -6.1663   36.1147 O.3       1 UNK        -0.2850 
     25 Cl25       -6.8021  -14.6675   33.8309 Cl        1 UNK        -0.1800 
     26 H26        -6.6110  -14.3878   38.6853 H         1 UNK         0.1150 
     27 H27        -8.2260  -10.9427   36.6185 H         1 UNK         0.1150 
     28 H28        -6.2660  -15.5104   36.5117 H         1 UNK         0.1150 
     29 H29        -7.8695  -12.0864   34.4614 H         1 UNK         0.1150 
     30 H30        -6.9992  -13.2051   40.7364 H         1 UNK         0.1260 
     31 H31        -7.8663  -11.1090   42.2964 H         1 UNK         0.1260 
     32 H32       -10.5809   -9.8328   38.7413 H         1 UNK         0.1150 
     33 H33        -9.5029   -5.0515   38.0196 H         1 UNK         0.1150 
     34 H34       -12.4901  -10.4746   35.7465 H         1 UNK         0.0300 
     35 H35       -12.4515  -10.3982   37.5033 H         1 UNK         0.0300 
     36 H36       -10.9572  -10.6957   36.5806 H         1 UNK         0.0300 
     37 H37       -11.3246   -4.4904   34.9446 H         1 UNK         0.0300 
     38 H38        -9.7519   -4.6512   35.7167 H         1 UNK         0.0300 
     39 H39       -11.1764   -4.1585   36.6659 H         1 UNK         0.0300 
     40 H40        -8.3817   -5.0092   40.0628 H         1 UNK         0.3600 
     41 H41        -8.2559   -6.3584   41.0854 H         1 UNK         0.3600 
@<TRIPOS>BOND
     1    1    3 ar   
     2    1    9 ar   
     3    1   26 1    
     4    2    4 ar   
     5    2    9 ar   
     6    2   27 1    
     7    3   14 ar   
     8    3   28 1    
     9    4   14 ar   
    10    4   29 1    
    11    5    6 1    
    12    5   15 2    
    13    5   30 1    
    14    6   16 2    
    15    6   31 1    
    16    7   10 ar   
    17    7   12 ar   
    18    7   32 1    
    19    8   11 ar   
    20    8   13 ar   
    21    8   33 1    
    22    9   15 1    
    23   10   11 ar   
    24   10   17 1    
    25   11   20 1    
    26   12   13 ar   
    27   12   23 1    
    28   13   24 1    
    29   14   25 1    
    30   15   22 1    
    31   16   17 1    
    32   16   22 1    
    33   17   21 2    
    34   18   23 1    
    35   18   34 1    
    36   18   35 1    
    37   18   36 1    
    38   19   24 1    
    39   19   37 1    
    40   19   38 1    
    41   19   39 1    
    42   20   40 1    
    43   20   41 1    
@<TRIPOS>SUBSTRUCTURE
     1 UNK         1 GROUP             0       ****    0 ROOT    
@<TRIPOS>MOLECULE
ZINC04291012_0
46   48    1
SMALL
USER_CHARGES


@<TRIPOS>ATOM
      1 C1         -6.8662  -13.7282   37.8789 C.ar      1 UNK        -0.1150 
      2 C2         -7.6620  -11.7785   36.6604 C.ar      1 UNK        -0.1150 
      3 C3         -6.7090  -14.4230   36.6633 C.ar      1 UNK        -0.1150 
      4 C4         -7.5050  -12.4730   35.4452 C.ar      1 UNK        -0.1150 
      5 C5         -7.2667  -12.0098   40.4588 C.2       1 UNK        -0.1540 
      6 C6         -7.6711  -10.8892   41.2381 C.2       1 UNK        -0.1540 
      7 C7        -10.1788   -8.5879   38.5865 C.ar      1 UNK        -0.1150 
      8 C8         -9.8031   -5.8464   38.1849 C.ar      1 UNK        -0.1150 
      9 C9         -7.3449  -12.3977   37.8929 C.ar      1 UNK        -0.4134 
     10 C10        -9.3357   -7.8761   39.4721 C.ar      1 UNK        -0.1150 
     11 C11        -9.1481   -6.4789   39.2693 C.ar      1 UNK         0.0850 
     12 C12       -10.8044   -7.9568   37.4869 C.ar      1 UNK         0.0850 
     13 C13       -10.6178   -6.5739   37.2849 C.ar      1 UNK         0.0850 
     14 C14        -7.0286  -13.7963   35.4453 C.ar      1 UNK         0.1800 
     15 C15        -7.5126  -11.6819   39.1547 C.2       1 UNK         0.5364 
     16 C16        -8.1472   -9.9531   40.3598 C.2       1 UNK         0.0080 
     17 C17        -8.6858   -8.6117   40.6054 C.2       1 UNK         0.7000 
     18 C18        -7.6161   -4.6209   39.9503 C.2       1 UNK         0.5000 
     19 C19        -6.8718   -4.0511   41.1495 C.3       1 UNK        -0.1800 
     20 C20       -11.6895  -10.0374   36.6565 C.3       1 UNK         0.1100 
     21 C21       -11.0290   -4.6348   35.9203 C.3       1 UNK         0.1100 
     22 N22        -8.3527   -5.7204   40.1832 N.am      1 UNK        -0.3850 
     23 O23        -8.5610   -8.1038   41.7222 O.2       1 UNK        -0.4700 
     24 O24        -7.4999   -4.0802   38.8542 O.2       1 UNK        -0.5000 
     25 O25        -8.0324  -10.4266   39.0863 O.3       1 UNK        -0.1900 
     26 O26       -11.6075   -8.6217   36.5837 O.3       1 UNK        -0.2850 
     27 O27       -11.2613   -6.0067   36.2039 O.3       1 UNK        -0.2850 
     28 Cl28       -6.8370  -14.6483   33.9575 Cl        1 UNK        -0.1800 
     29 H29        -6.6144  -14.2329   38.8003 H         1 UNK         0.1150 
     30 H30        -8.0271  -10.7611   36.6310 H         1 UNK         0.1150 
     31 H31        -6.3427  -15.4390   36.6619 H         1 UNK         0.1150 
     32 H32        -7.7482  -11.9907   34.5096 H         1 UNK         0.1150 
     33 H33        -6.8501  -12.9430   40.8063 H         1 UNK         0.1260 
     34 H34        -7.6276  -10.7753   42.3121 H         1 UNK         0.1260 
     35 H35       -10.3452   -9.6385   38.7634 H         1 UNK         0.1150 
     36 H36        -9.6805   -4.7839   38.0511 H         1 UNK         0.1150 
     37 H37        -6.1087   -4.7503   41.4913 H         1 UNK         0.0600 
     38 H38        -7.5598   -3.8495   41.9707 H         1 UNK         0.0600 
     39 H39        -6.3800   -3.1155   40.8811 H         1 UNK         0.0600 
     40 H40       -12.2878  -10.4048   35.8228 H         1 UNK         0.0300 
     41 H41       -12.1757  -10.3615   37.5773 H         1 UNK         0.0300 
     42 H42       -10.7045  -10.5008   36.5831 H         1 UNK         0.0300 
     43 H43       -11.5663   -4.3607   35.0126 H         1 UNK         0.0300 
     44 H44        -9.9702   -4.4350   35.7488 H         1 UNK         0.0300 
     45 H45       -11.3934   -3.9944   36.7245 H         1 UNK         0.0300 
     46 H46        -8.2786   -6.1049   41.1167 H         1 UNK         0.3000 
@<TRIPOS>BOND
     1    1    3 ar   
     2    1    9 ar   
     3    1   29 1    
     4    2    4 ar   
     5    2    9 ar   
     6    2   30 1    
     7    3   14 ar   
     8    3   31 1    
     9    4   14 ar   
    10    4   32 1    
    11    5    6 1    
    12    5   15 2    
    13    5   33 1    
    14    6   16 2    
    15    6   34 1    
    16    7   10 ar   
    17    7   12 ar   
    18    7   35 1    
    19    8   11 ar   
    20    8   13 ar   
    21    8   36 1    
    22    9   15 1    
    23   10   11 ar   
    24   10   17 1    
    25   11   22 1    
    26   12   13 ar   
    27   12   26 1    
    28   13   27 1    
    29   14   28 1    
    30   15   25 1    
    31   16   17 1    
    32   16   25 1    
    33   17   23 2    
    34   18   19 1    
    35   18   22 am   BACKBONE|DICT|INTERRES
    36   18   24 2    
    37   19   37 1    
    38   19   38 1    
    39   19   39 1    
    40   20   26 1    
    41   20   40 1    
    42   20   41 1    
    43   20   42 1    
    44   21   27 1    
    45   21   43 1    
    46   21   44 1    
    47   21   45 1    
    48   22   46 1    
@<TRIPOS>SUBSTRUCTURE
     1 UNK         1 GROUP             0       ****    0 ROOT    
@<TRIPOS>MOLECULE
ZINC04291247_7
32   33    1
SMALL
USER_CHARGES


@<TRIPOS>ATOM
      1 C1         -6.4714   -3.8756   39.6417 C.ar      1 UNK        -0.1150 
      2 C2         -6.9301   -3.0758   38.5815 C.ar      1 UNK        -0.1150 
      3 C3         -5.5835   -8.4895   41.4105 C.2       1 UNK        -0.1540 
      4 C4         -5.1776   -9.6110   40.6345 C.2       1 UNK        -0.1540 
      5 C5         -7.5135   -5.8095   38.6062 C.ar      1 UNK        -0.1150 
      6 C6         -6.7434   -5.2571   39.6540 C.ar      1 UNK        -0.1150 
      7 C7         -7.6709   -3.6226   37.5153 C.ar      1 UNK         0.0850 
      8 C8         -7.9872   -5.0152   37.5286 C.ar      1 UNK         0.0850 
      9 C9         -5.8303   -7.4678   40.5333 C.2       1 UNK         0.0080 
     10 C10        -5.1911   -9.1969   39.3330 C.2       1 UNK         0.0080 
     11 C11        -6.2501   -6.0845   40.7935 C.2       1 UNK         0.7000 
     12 C12        -4.8721   -9.8582   38.0369 C.3       1 UNK        -0.0650 
     13 C13        -8.5202   -3.1396   35.2907 C.3       1 UNK         0.1100 
     14 C14        -9.0826   -6.9347   36.5443 C.3       1 UNK         0.1100 
     15 O15        -6.1686   -5.6240   41.9331 O.2       1 UNK        -0.4700 
     16 O16        -5.5818   -7.8953   39.2585 O.3       1 UNK        -0.1900 
     17 O17        -8.0350   -2.7031   36.5503 O.3       1 UNK        -0.2850 
     18 O18        -8.7547   -5.5528   36.5140 O.3       1 UNK        -0.2850 
     19 H19        -5.9047   -3.4246   40.4449 H         1 UNK         0.1150 
     20 H20        -6.7065   -2.0189   38.5790 H         1 UNK         0.1150 
     21 H21        -5.6844   -8.4259   42.4847 H         1 UNK         0.1260 
     22 H22        -4.9027  -10.5951   40.9866 H         1 UNK         0.1260 
     23 H23        -7.7440   -6.8616   38.6555 H         1 UNK         0.1150 
     24 H24        -5.7850  -10.1071   37.4963 H         1 UNK         0.0600 
     25 H25        -4.2720   -9.2028   37.4054 H         1 UNK         0.0600 
     26 H26        -4.3103  -10.7786   38.1965 H         1 UNK         0.0600 
     27 H27        -8.5494   -2.2902   34.6086 H         1 UNK         0.0300 
     28 H28        -9.5370   -3.5258   35.3678 H         1 UNK         0.0300 
     29 H29        -7.8690   -3.8924   34.8440 H         1 UNK         0.0300 
     30 H30        -9.6881   -7.1778   35.6713 H         1 UNK         0.0300 
     31 H31        -9.6685   -7.1867   37.4292 H         1 UNK         0.0300 
     32 H32        -8.1889   -7.5594   36.5079 H         1 UNK         0.0300 
@<TRIPOS>BOND
     1    1    2 ar   
     2    1    6 ar   
     3    1   19 1    
     4    2    7 ar   
     5    2   20 1    
     6    3    4 1    
     7    3    9 2    
     8    3   21 1    
     9    4   10 2    
    10    4   22 1    
    11    5    6 ar   
    12    5    8 ar   
    13    5   23 1    
    14    6   11 1    
    15    7    8 ar   
    16    7   17 1    
    17    8   18 1    
    18    9   11 1    
    19    9   16 1    
    20   10   12 1    
    21   10   16 1    
    22   11   15 2    
    23   12   24 1    
    24   12   25 1    
    25   12   26 1    
    26   13   17 1    
    27   13   27 1    
    28   13   28 1    
    29   13   29 1    
    30   14   18 1    
    31   14   30 1    
    32   14   31 1    
    33   14   32 1    
@<TRIPOS>SUBSTRUCTURE
     1 UNK         1 GROUP             0       ****    0 ROOT    
@<TRIPOS>MOLECULE
ZINC04310128_22
53   56    1
SMALL
USER_CHARGES


@<TRIPOS>ATOM
      1 C1         -4.2727  -10.5647   35.0020 C.ar      1 UNK        -0.1150 
      2 C2         -3.0619  -10.2424   35.6453 C.ar      1 UNK        -0.1150 
      3 C3         -7.5600   -3.9703   39.6353 C.ar      1 UNK        -0.1150 
      4 C4         -7.8791   -6.1732   38.6516 C.ar      1 UNK        -0.1150 
      5 C5         -5.5082   -9.5893   36.8466 C.ar      1 UNK        -0.1150 
      6 C6         -7.1976   -5.3314   39.5564 C.ar      1 UNK         0.0000 
      7 C7         -4.2997   -9.2649   37.5002 C.ar      1 UNK         0.0044 
      8 C8         -5.5122  -10.2365   35.5993 C.ar      1 UNK         0.0850 
      9 C9         -3.0557   -9.5851   36.9016 C.ar      1 UNK         0.0850 
     10 C10        -8.5877   -3.4399   38.8189 C.ar      1 UNK         0.0850 
     11 C11        -8.8954   -5.6631   37.8099 C.ar      1 UNK         0.0850 
     12 C12        -9.2394   -4.2962   37.8986 C.ar      1 UNK         0.0850 
     13 C13        -6.1218   -5.8400   40.4155 C.ar      1 UNK         0.4100 
     14 C14        -4.4529   -6.8718   41.1942 C.ar      1 UNK         0.5625 
     15 C15        -4.3815   -8.5720   38.8079 C.2       1 UNK         0.3492 
     16 C16        -3.7010   -9.1592   40.0476 C.3       1 UNK         0.0836 
     17 C17        -6.7803  -11.1306   33.7687 C.3       1 UNK         0.1100 
     18 C18        -0.6463   -9.5384   36.9632 C.3       1 UNK         0.1100 
     19 C19        -8.4160   -1.2715   39.8492 C.3       1 UNK         0.1100 
     20 C20        -9.1586   -7.7660   36.6694 C.3       1 UNK         0.1100 
     21 C21        -9.7874   -2.9832   36.0399 C.3       1 UNK         0.1100 
     22 N22        -5.9109   -5.3577   41.6492 N.2       1 UNK        -0.3633 
     23 N23        -4.8192   -6.0322   42.1578 N.2       1 UNK        -0.3633 
     24 N24        -5.0993   -7.5193   38.8962 N.2       1 UNK        -0.3897 
     25 N25        -5.2263   -6.8039   40.0940 N.pl3     1 UNK        -0.0934 
     26 O26        -6.7429  -10.5056   35.0434 O.3       1 UNK        -0.2850 
     27 O27        -1.8968   -9.2287   37.5618 O.3       1 UNK        -0.2850 
     28 O28        -8.9992   -2.1234   38.8743 O.3       1 UNK        -0.2850 
     29 O29        -9.5791   -6.4275   36.8859 O.3       1 UNK        -0.2850 
     30 O30       -10.2413   -3.8237   37.0884 O.3       1 UNK        -0.2850 
     31 S31        -3.0897   -7.9728   41.2828 S.3       1 UNK        -0.3200 
     32 H32        -4.2223  -11.0617   34.0453 H         1 UNK         0.1150 
     33 H33        -2.1450  -10.5077   35.1422 H         1 UNK         0.1150 
     34 H34        -7.0319   -3.3482   40.3419 H         1 UNK         0.1150 
     35 H35        -7.6133   -7.2164   38.6180 H         1 UNK         0.1150 
     36 H36        -6.4533   -9.3384   37.3055 H         1 UNK         0.1150 
     37 H37        -4.4269   -9.8020   40.5452 H         1 UNK         0.0600 
     38 H38        -2.8768   -9.8086   39.7582 H         1 UNK         0.0600 
     39 H39        -7.8185  -11.2652   33.4651 H         1 UNK         0.0300 
     40 H40        -6.3138  -12.1164   33.7936 H         1 UNK         0.0300 
     41 H41        -6.2923  -10.5179   33.0095 H         1 UNK         0.0300 
     42 H42         0.1575   -9.1944   37.6142 H         1 UNK         0.0300 
     43 H43        -0.5280   -9.0363   36.0022 H         1 UNK         0.0300 
     44 H44        -0.5232  -10.6140   36.8292 H         1 UNK         0.0300 
     45 H45        -8.8759   -0.2855   39.7850 H         1 UNK         0.0300 
     46 H46        -7.3454   -1.1467   39.6812 H         1 UNK         0.0300 
     47 H47        -8.5838   -1.6471   40.8597 H         1 UNK         0.0300 
     48 H48        -9.7576   -8.2066   35.8725 H         1 UNK         0.0300 
     49 H49        -9.2972   -8.3780   37.5613 H         1 UNK         0.0300 
     50 H50        -8.1146   -7.8091   36.3566 H         1 UNK         0.0300 
     51 H51       -10.6084   -2.7943   35.3486 H         1 UNK         0.0300 
     52 H52        -8.9803   -3.4544   35.4770 H         1 UNK         0.0300 
     53 H53        -9.4389   -2.0192   36.4093 H         1 UNK         0.0300 
@<TRIPOS>BOND
     1    1    2 ar   
     2    1    8 ar   
     3    1   32 1    
     4    2    9 ar   
     5    2   33 1    
     6    3    6 ar   
     7    3   10 ar   
     8    3   34 1    
     9    4    6 ar   
    10    4   11 ar   
    11    4   35 1    
    12    5    7 ar   
    13    5    8 ar   
    14    5   36 1    
    15    6   13 1    
    16    7    9 ar   
    17    7   15 1    
    18    8   26 1    
    19    9   27 1    
    20   10   12 ar   
    21   10   28 1    
    22   11   12 ar   
    23   11   29 1    
    24   12   30 1    
    25   13   22 ar   
    26   13   25 ar   
    27   14   23 ar   
    28   14   25 ar   
    29   14   31 1    
    30   15   16 1    
    31   15   24 2    
    32   16   31 1    
    33   16   37 1    
    34   16   38 1    
    35   17   26 1    
    36   17   39 1    
    37   17   40 1    
    38   17   41 1    
    39   18   27 1    
    40   18   42 1    
    41   18   43 1    
    42   18   44 1    
    43   19   28 1    
    44   19   45 1    
    45   19   46 1    
    46   19   47 1    
    47   20   29 1    
    48   20   48 1    
    49   20   49 1    
    50   20   50 1    
    51   21   30 1    
    52   21   51 1    
    53   21   52 1    
    54   21   53 1    
    55   22   23 ar   
    56   24   25 1    
@<TRIPOS>SUBSTRUCTURE
     1 UNK         1 GROUP             0       ****    0 ROOT    
@<TRIPOS>MOLECULE
ZINC04313130_14
41   44    1
SMALL
USER_CHARGES


@<TRIPOS>ATOM
      1 C1         -9.2490  -15.9469   35.0775 C.ar      1 UNK        -0.1150 
      2 C2         -9.7856  -16.7528   36.0993 C.ar      1 UNK        -0.1150 
      3 C3         -8.9291  -14.6014   35.3388 C.ar      1 UNK        -0.1150 
      4 C4        -12.0981  -10.6638   38.5612 C.ar      1 UNK        -0.1150 
      5 C5         -9.9984  -16.2164   37.3847 C.ar      1 UNK        -0.1150 
      6 C6         -9.1421  -14.0623   36.6228 C.ar      1 UNK        -0.1150 
      7 C7        -12.5776   -9.7217   37.6335 C.ar      1 UNK        -0.1150 
      8 C8        -11.0891   -8.8710   39.8420 C.ar      1 UNK        -0.1150 
      9 C9        -11.3426  -10.2462   39.6737 C.ar      1 UNK         0.0000 
     10 C10        -9.6714  -14.8676   37.6591 C.ar      1 UNK         0.0044 
     11 C11       -12.3226   -8.3347   37.7948 C.ar      1 UNK         0.0850 
     12 C12       -11.5728   -7.9089   38.9328 C.ar      1 UNK         0.0850 
     13 C13       -10.8253  -11.2058   40.6524 C.ar      1 UNK         0.4100 
     14 C14        -9.9773  -12.8907   41.5933 C.ar      1 UNK         0.5625 
     15 C15        -9.9004  -14.2945   39.0132 C.2       1 UNK         0.3492 
     16 C16        -9.8572  -15.1962   40.2518 C.3       1 UNK         0.0836 
     17 C17       -13.5294   -7.8310   35.7613 C.3       1 UNK         0.1100 
     18 C18       -11.9630   -5.5278   38.6834 C.3       1 UNK         0.1100 
     19 N19       -10.8017  -10.9402   41.9664 N.2       1 UNK        -0.3633 
     20 N20       -10.2469  -12.0442   42.5822 N.2       1 UNK        -0.3633 
     21 N21       -10.1434  -13.0454   39.1286 N.2       1 UNK        -0.3897 
     22 N22       -10.3187  -12.4300   40.3757 N.pl3     1 UNK        -0.0934 
     23 O23       -12.7607   -7.4017   36.8759 O.3       1 UNK        -0.2850 
     24 O24       -11.2371   -6.6071   39.2502 O.3       1 UNK        -0.2850 
     25 S25        -9.2289  -14.4629   41.7924 S.3       1 UNK        -0.3200 
     26 H26        -9.0855  -16.3596   34.0920 H         1 UNK         0.1150 
     27 H27       -10.0365  -17.7840   35.8950 H         1 UNK         0.1150 
     28 H28        -8.5197  -13.9811   34.5542 H         1 UNK         0.1150 
     29 H29       -12.3148  -11.7112   38.4134 H         1 UNK         0.1150 
     30 H30       -10.4227  -16.8534   38.1469 H         1 UNK         0.1150 
     31 H31        -8.8912  -13.0267   36.8071 H         1 UNK         0.1150 
     32 H32       -13.1408  -10.1006   36.7955 H         1 UNK         0.1150 
     33 H33       -10.5155   -8.5399   40.6960 H         1 UNK         0.1150 
     34 H34       -10.8689  -15.5554   40.4413 H         1 UNK         0.0600 
     35 H35        -9.2456  -16.0735   40.0437 H         1 UNK         0.0600 
     36 H36       -13.8016   -6.9638   35.1598 H         1 UNK         0.0300 
     37 H37       -14.4552   -8.3143   36.0763 H         1 UNK         0.0300 
     38 H38       -12.9636   -8.5091   35.1212 H         1 UNK         0.0300 
     39 H39       -13.0407   -5.6906   38.7323 H         1 UNK         0.0300 
     40 H40       -11.6620   -5.3460   37.6515 H         1 UNK         0.0300 
     41 H41       -11.7459   -4.6203   39.2467 H         1 UNK         0.0300 
@<TRIPOS>BOND
     1    1    2 ar   
     2    1    3 ar   
     3    1   26 1    
     4    2    5 ar   
     5    2   27 1    
     6    3    6 ar   
     7    3   28 1    
     8    4    7 ar   
     9    4    9 ar   
    10    4   29 1    
    11    5   10 ar   
    12    5   30 1    
    13    6   10 ar   
    14    6   31 1    
    15    7   11 ar   
    16    7   32 1    
    17    8    9 ar   
    18    8   12 ar   
    19    8   33 1    
    20    9   13 1    
    21   10   15 1    
    22   11   12 ar   
    23   11   23 1    
    24   12   24 1    
    25   13   19 ar   
    26   13   22 ar   
    27   14   20 ar   
    28   14   22 ar   
    29   14   25 1    
    30   15   16 1    
    31   15   21 2    
    32   16   25 1    
    33   16   34 1    
    34   16   35 1    
    35   17   23 1    
    36   17   36 1    
    37   17   37 1    
    38   17   38 1    
    39   18   24 1    
    40   18   39 1    
    41   18   40 1    
    42   18   41 1    
    43   19   20 ar   
    44   21   22 1    
@<TRIPOS>SUBSTRUCTURE
     1 UNK         1 GROUP             0       ****    0 ROOT    
@<TRIPOS>MOLECULE
ZINC04325361_46
41   44    1
SMALL
USER_CHARGES


@<TRIPOS>ATOM
      1 C1         -8.8697  -14.5505   35.3513 C.ar      1 UNK        -0.1150 
      2 C2        -12.0970  -10.6494   38.5817 C.ar      1 UNK        -0.1150 
      3 C3         -9.0889  -14.0177   36.6372 C.ar      1 UNK        -0.1150 
      4 C4        -12.5769   -9.7133   37.6486 C.ar      1 UNK        -0.1150 
      5 C5         -9.1909  -15.8945   35.0823 C.ar      1 UNK        -0.1150 
      6 C6        -11.0627   -8.8516   39.8354 C.ar      1 UNK        -0.1150 
      7 C7         -9.9530  -16.1743   37.3833 C.ar      1 UNK        -0.1150 
      8 C8        -11.3279  -10.2263   39.6822 C.ar      1 UNK         0.0000 
      9 C9         -9.6260  -14.8281   37.6661 C.ar      1 UNK         0.0044 
     10 C10       -12.3072   -8.3270   37.7918 C.ar      1 UNK         0.0850 
     11 C11       -11.5454   -7.8951   38.9195 C.ar      1 UNK         0.0850 
     12 C12        -9.7342  -16.7035   36.0974 C.ar      1 UNK         0.2000 
     13 C13       -10.8074  -11.1818   40.6624 C.ar      1 UNK         0.4100 
     14 C14        -9.9527  -12.8634   41.6026 C.ar      1 UNK         0.5625 
     15 C15        -9.8648  -14.2633   39.0208 C.2       1 UNK         0.3492 
     16 C16        -9.8209  -15.1673   40.2581 C.3       1 UNK         0.0836 
     17 C17       -13.5050   -7.8401   35.7496 C.3       1 UNK         0.1100 
     18 C18       -11.9101   -5.5127   38.6399 C.3       1 UNK         0.1100 
     19 N19       -10.7837  -10.9156   41.9760 N.2       1 UNK        -0.3633 
     20 N20       -10.2251  -12.0178   42.5916 N.2       1 UNK        -0.3633 
     21 N21       -10.1164  -13.0164   39.1372 N.2       1 UNK        -0.3897 
     22 N22       -10.2958  -12.4036   40.3852 N.pl3     1 UNK        -0.0934 
     23 O23       -12.7440   -7.4010   36.8653 O.3       1 UNK        -0.2850 
     24 O24       -11.1958   -6.5929   39.2200 O.3       1 UNK        -0.2850 
     25 S25        -9.1971  -14.4327   41.7998 S.3       1 UNK        -0.3200 
     26 Br26      -10.1790  -18.5161   35.7338 Br        1 UNK        -0.2000 
     27 H27        -8.4555  -13.9275   34.5713 H         1 UNK         0.1150 
     28 H28       -12.3229  -11.6969   38.4477 H         1 UNK         0.1150 
     29 H29        -8.8377  -12.9829   36.8290 H         1 UNK         0.1150 
     30 H30       -13.1515  -10.0959   36.8201 H         1 UNK         0.1150 
     31 H31        -9.0253  -16.3067   34.0974 H         1 UNK         0.1150 
     32 H32       -10.4794   -8.5169   40.6815 H         1 UNK         0.1150 
     33 H33       -10.3822  -16.8173   38.1372 H         1 UNK         0.1150 
     34 H34       -10.8316  -15.5298   40.4461 H         1 UNK         0.0600 
     35 H35        -9.2063  -16.0428   40.0504 H         1 UNK         0.0600 
     36 H36       -13.7684   -6.9792   35.1351 H         1 UNK         0.0300 
     37 H37       -14.4354   -8.3165   36.0620 H         1 UNK         0.0300 
     38 H38       -12.9352   -8.5279   35.1233 H         1 UNK         0.0300 
     39 H39       -12.9894   -5.6612   38.6958 H         1 UNK         0.0300 
     40 H40       -11.6113   -5.3503   37.6040 H         1 UNK         0.0300 
     41 H41       -11.6789   -4.5996   39.1881 H         1 UNK         0.0300 
@<TRIPOS>BOND
     1    1    3 ar   
     2    1    5 ar   
     3    1   27 1    
     4    2    4 ar   
     5    2    8 ar   
     6    2   28 1    
     7    3    9 ar   
     8    3   29 1    
     9    4   10 ar   
    10    4   30 1    
    11    5   12 ar   
    12    5   31 1    
    13    6    8 ar   
    14    6   11 ar   
    15    6   32 1    
    16    7    9 ar   
    17    7   12 ar   
    18    7   33 1    
    19    8   13 1    
    20    9   15 1    
    21   10   11 ar   
    22   10   23 1    
    23   11   24 1    
    24   12   26 1    
    25   13   19 ar   
    26   13   22 ar   
    27   14   20 ar   
    28   14   22 ar   
    29   14   25 1    
    30   15   16 1    
    31   15   21 2    
    32   16   25 1    
    33   16   34 1    
    34   16   35 1    
    35   17   23 1    
    36   17   36 1    
    37   17   37 1    
    38   17   38 1    
    39   18   24 1    
    40   18   39 1    
    41   18   40 1    
    42   18   41 1    
    43   19   20 ar   
    44   21   22 1    
@<TRIPOS>SUBSTRUCTURE
     1 UNK         1 GROUP             0       ****    0 ROOT    
@<TRIPOS>MOLECULE
ZINC04383994_19
46   49    1
SMALL
USER_CHARGES


@<TRIPOS>ATOM
      1 C1         -5.1351  -12.7572   38.2610 C.ar      1 UNK        -0.1150 
      2 C2         -4.8090  -12.5934   36.9050 C.ar      1 UNK        -0.1150 
      3 C3         -5.1914  -11.6337   39.1049 C.ar      1 UNK        -0.1150 
      4 C4         -4.5377  -11.3096   36.3983 C.ar      1 UNK        -0.1150 
      5 C5         -6.7570   -3.8964   39.4064 C.ar      1 UNK        -0.1150 
      6 C6         -7.8072   -5.9363   38.5901 C.ar      1 UNK        -0.1150 
      7 C7         -6.8957   -5.2989   39.4587 C.ar      1 UNK         0.0000 
      8 C8         -4.9273  -10.3361   38.6121 C.ar      1 UNK         0.0000 
      9 C9         -4.5919  -10.1705   37.2424 C.ar      1 UNK         0.0850 
     10 C10        -7.5111   -3.1252   38.4900 C.ar      1 UNK         0.0850 
     11 C11        -8.5645   -5.1882   37.6580 C.ar      1 UNK         0.0850 
     12 C12        -8.4056   -3.7853   37.6165 C.ar      1 UNK         0.0850 
     13 C13        -6.0888   -6.0598   40.4171 C.ar      1 UNK         0.4100 
     14 C14        -4.8652   -7.6158   41.4179 C.ar      1 UNK         0.4175 
     15 C15        -5.0100   -9.1899   39.5365 C.2       1 UNK         0.2453 
     16 C16        -4.0256   -8.6937   35.4236 C.3       1 UNK         0.1100 
     17 C17        -6.5866   -1.0601   39.3061 C.3       1 UNK         0.1100 
     18 C18        -9.6026   -7.1624   36.7575 C.3       1 UNK         0.1100 
     19 C19        -8.4530   -2.7650   35.5264 C.3       1 UNK         0.1100 
     20 N20        -5.7027   -5.6056   41.6236 N.2       1 UNK        -0.3633 
     21 N21        -4.9289   -6.6109   42.2549 N.2       1 UNK        -0.3633 
     22 N22        -5.6944   -8.0820   39.2335 N.2       1 UNK        -0.2500 
     23 N23        -5.5682   -7.2835   40.3131 N.pl3     1 UNK        -0.0934 
     24 O24        -4.3157   -8.8929   36.7992 O.3       1 UNK        -0.2850 
     25 O25        -7.4238   -1.7513   38.3911 O.3       1 UNK        -0.2850 
     26 O26        -9.4575   -5.7503   36.7684 O.3       1 UNK        -0.2850 
     27 O27        -9.1495   -3.0569   36.7252 O.3       1 UNK        -0.2850 
     28 S28        -4.2288   -9.2319   41.1513 S.3       1 UNK        -0.0028 
     29 H29        -5.3448  -13.7424   38.6531 H         1 UNK         0.1150 
     30 H30        -4.7645  -13.4530   36.2516 H         1 UNK         0.1150 
     31 H31        -5.4518  -11.7714   40.1443 H         1 UNK         0.1150 
     32 H32        -4.2848  -11.2278   35.3525 H         1 UNK         0.1150 
     33 H33        -6.0590   -3.4325   40.0867 H         1 UNK         0.1150 
     34 H34        -7.9195   -7.0059   38.6558 H         1 UNK         0.1150 
     35 H35        -3.8656   -7.6307   35.2417 H         1 UNK         0.0300 
     36 H36        -4.8537   -9.0139   34.7898 H         1 UNK         0.0300 
     37 H37        -3.1165   -9.2188   35.1279 H         1 UNK         0.0300 
     38 H38        -6.6600    0.0114   39.1203 H         1 UNK         0.0300 
     39 H39        -5.5408   -1.3446   39.1829 H         1 UNK         0.0300 
     40 H40        -6.8915   -1.2363   40.3387 H         1 UNK         0.0300 
     41 H41       -10.3231   -7.4431   35.9895 H         1 UNK         0.0300 
     42 H42        -9.9786   -7.5322   37.7122 H         1 UNK         0.0300 
     43 H43        -8.6600   -7.6588   36.5221 H         1 UNK         0.0300 
     44 H44        -9.0957   -2.1870   34.8629 H         1 UNK         0.0300 
     45 H45        -8.1695   -3.6811   35.0061 H         1 UNK         0.0300 
     46 H46        -7.5532   -2.1785   35.7170 H         1 UNK         0.0300 
@<TRIPOS>BOND
     1    1    2 ar   
     2    1    3 ar   
     3    1   29 1    
     4    2    4 ar   
     5    2   30 1    
     6    3    8 ar   
     7    3   31 1    
     8    4    9 ar   
     9    4   32 1    
    10    5    7 ar   
    11    5   10 ar   
    12    5   33 1    
    13    6    7 ar   
    14    6   11 ar   
    15    6   34 1    
    16    7   13 1    
    17    8    9 ar   
    18    8   15 1    
    19    9   24 1    
    20   10   12 ar   
    21   10   25 1    
    22   11   12 ar   
    23   11   26 1    
    24   12   27 1    
    25   13   20 ar   
    26   13   23 ar   
    27   14   21 ar   
    28   14   23 ar   
    29   14   28 1    
    30   15   22 2    
    31   15   28 1    
    32   16   24 1    
    33   16   35 1    
    34   16   36 1    
    35   16   37 1    
    36   17   25 1    
    37   17   38 1    
    38   17   39 1    
    39   17   40 1    
    40   18   26 1    
    41   18   41 1    
    42   18   42 1    
    43   18   43 1    
    44   19   27 1    
    45   19   44 1    
    46   19   45 1    
    47   19   46 1    
    48   20   21 ar   
    49   22   23 1    
@<TRIPOS>SUBSTRUCTURE
     1 UNK         1 GROUP             0       ****    0 ROOT    
@<TRIPOS>MOLECULE
ZINC04383996_63
49   52    1
SMALL
USER_CHARGES


@<TRIPOS>ATOM
      1 C1         -4.4220  -13.3261   35.6672 C.ar      1 UNK        -0.1150 
      2 C2         -4.3745  -12.8748   34.3354 C.ar      1 UNK        -0.1150 
      3 C3         -4.5809  -12.4070   36.7226 C.ar      1 UNK        -0.1150 
      4 C4         -6.8620   -3.9642   39.4859 C.ar      1 UNK        -0.1150 
      5 C5         -7.7702   -6.0053   38.5174 C.ar      1 UNK        -0.1150 
      6 C6         -4.6448  -10.5811   35.1143 C.ar      1 UNK        -0.1150 
      7 C7         -6.9654   -5.3711   39.4881 C.ar      1 UNK         0.0000 
      8 C8         -4.4847  -11.4986   34.0555 C.ar      1 UNK        -0.1150 
      9 C9         -4.6942  -11.0197   36.4529 C.ar      1 UNK         0.0850 
     10 C10        -7.5506   -3.1854   38.5258 C.ar      1 UNK         0.0850 
     11 C11        -8.4594   -5.2486   37.5396 C.ar      1 UNK         0.0850 
     12 C12        -8.3420   -3.8403   37.5563 C.ar      1 UNK         0.0850 
     13 C13        -6.2396   -6.1344   40.5088 C.ar      1 UNK         0.4100 
     14 C14        -5.1052   -7.6841   41.6132 C.ar      1 UNK         0.4175 
     15 C15        -5.0790   -9.2793   39.7156 C.2       1 UNK         0.2035 
     16 C16        -4.4363  -11.0079   32.6230 C.3       1 UNK        -0.0650 
     17 C17        -6.7521   -1.1233   39.4705 C.3       1 UNK         0.1100 
     18 C18        -9.3542   -7.2217   36.4935 C.3       1 UNK         0.1100 
     19 C19        -8.3077   -2.9102   35.4243 C.3       1 UNK         0.1100 
     20 C20        -4.9028  -10.4556   38.7792 C.3       1 UNK         0.1818 
     21 N21        -5.9669   -5.6813   41.7465 N.2       1 UNK        -0.3633 
     22 N22        -5.2477   -6.6824   42.4431 N.2       1 UNK        -0.3633 
     23 N23        -5.7259   -8.1586   39.3688 N.2       1 UNK        -0.2500 
     24 N24        -5.7038   -7.3560   40.4516 N.pl3     1 UNK        -0.0934 
     25 O25        -7.4918   -1.8077   38.4703 O.3       1 UNK        -0.2850 
     26 O26        -9.2514   -5.8072   36.5568 O.3       1 UNK        -0.2850 
     27 O27        -9.0245   -3.0926   36.6324 O.3       1 UNK        -0.2850 
     28 O28        -4.8510  -10.0495   37.4181 O.3       1 UNK        -0.2850 
     29 S29        -4.4431   -9.2928   41.3977 S.3       1 UNK        -0.0028 
     30 H30        -4.3358  -14.3817   35.8796 H         1 UNK         0.1150 
     31 H31        -4.2530  -13.5878   33.5323 H         1 UNK         0.1150 
     32 H32        -4.6121  -12.7966   37.7282 H         1 UNK         0.1150 
     33 H33        -6.2448   -3.5011   40.2407 H         1 UNK         0.1150 
     34 H34        -7.8601   -7.0784   38.5431 H         1 UNK         0.1150 
     35 H35        -4.7309   -9.5247   34.9051 H         1 UNK         0.1150 
     36 H36        -5.4331  -11.0334   32.1819 H         1 UNK         0.0600 
     37 H37        -4.0648   -9.9840   32.5722 H         1 UNK         0.0600 
     38 H38        -3.7774  -11.6336   32.0202 H         1 UNK         0.0600 
     39 H39        -6.8335   -0.0489   39.3061 H         1 UNK         0.0300 
     40 H40        -5.6935   -1.3830   39.4311 H         1 UNK         0.0300 
     41 H41        -7.1399   -1.3338   40.4682 H         1 UNK         0.0300 
     42 H42        -9.9914   -7.4978   35.6536 H         1 UNK         0.0300 
     43 H43        -9.8078   -7.6292   37.3979 H         1 UNK         0.0300 
     44 H44        -8.3801   -7.6868   36.3348 H         1 UNK         0.0300 
     45 H45        -8.8944   -2.2955   34.7418 H         1 UNK         0.0300 
     46 H46        -8.1093   -3.8633   34.9321 H         1 UNK         0.0300 
     47 H47        -7.3585   -2.4025   35.6017 H         1 UNK         0.0300 
     48 H48        -5.7385  -11.1384   38.9380 H         1 UNK         0.0300 
     49 H49        -3.9821  -10.9741   39.0504 H         1 UNK         0.0300 
@<TRIPOS>BOND
     1    1    2 ar   
     2    1    3 ar   
     3    1   30 1    
     4    2    8 ar   
     5    2   31 1    
     6    3    9 ar   
     7    3   32 1    
     8    4    7 ar   
     9    4   10 ar   
    10    4   33 1    
    11    5    7 ar   
    12    5   11 ar   
    13    5   34 1    
    14    6    8 ar   
    15    6    9 ar   
    16    6   35 1    
    17    7   13 1    
    18    8   16 1    
    19    9   28 1    
    20   10   12 ar   
    21   10   25 1    
    22   11   12 ar   
    23   11   26 1    
    24   12   27 1    
    25   13   21 ar   
    26   13   24 ar   
    27   14   22 ar   
    28   14   24 ar   
    29   14   29 1    
    30   15   20 1    
    31   15   23 2    
    32   15   29 1    
    33   16   36 1    
    34   16   37 1    
    35   16   38 1    
    36   17   25 1    
    37   17   39 1    
    38   17   40 1    
    39   17   41 1    
    40   18   26 1    
    41   18   42 1    
    42   18   43 1    
    43   18   44 1    
    44   19   27 1    
    45   19   45 1    
    46   19   46 1    
    47   19   47 1    
    48   20   28 1    
    49   20   48 1    
    50   20   49 1    
    51   21   22 ar   
    52   23   24 1    
@<TRIPOS>SUBSTRUCTURE
     1 UNK         1 GROUP             0       ****    0 ROOT    
@<TRIPOS>MOLECULE
ZINC04383997_87
49   52    1
SMALL
USER_CHARGES


@<TRIPOS>ATOM
      1 C1         -5.9901  -14.2637   34.6670 C.ar      1 UNK        -0.1150 
      2 C2         -3.5972  -14.0036   35.0312 C.ar      1 UNK        -0.1150 
      3 C3         -6.2497  -13.3540   35.7106 C.ar      1 UNK        -0.1150 
      4 C4         -3.8582  -13.0943   36.0737 C.ar      1 UNK        -0.1150 
      5 C5         -7.8819   -5.0438   39.3126 C.ar      1 UNK        -0.1150 
      6 C6         -9.2992   -6.8780   38.5862 C.ar      1 UNK        -0.1150 
      7 C7         -8.2125   -6.4107   39.3474 C.ar      1 UNK         0.0000 
      8 C8         -4.6635  -14.5892   34.3215 C.ar      1 UNK        -0.1150 
      9 C9         -5.1803  -12.7560   36.4237 C.ar      1 UNK         0.0850 
     10 C10        -8.6119   -4.1287   38.5138 C.ar      1 UNK         0.0850 
     11 C11       -10.0446   -5.9914   37.7753 C.ar      1 UNK         0.0850 
     12 C12        -9.6949   -4.6205   37.7244 C.ar      1 UNK         0.0850 
     13 C13        -7.4243   -7.3183   40.1802 C.ar      1 UNK         0.4100 
     14 C14        -6.2800   -9.0554   40.9365 C.ar      1 UNK         0.4175 
     15 C15        -6.6388  -10.4052   38.8885 C.2       1 UNK         0.2035 
     16 C16        -4.3821  -15.5653   33.1980 C.3       1 UNK        -0.0650 
     17 C17        -7.2409   -2.2950   39.2918 C.3       1 UNK         0.1100 
     18 C18       -11.4930   -7.7621   37.0165 C.3       1 UNK         0.1100 
     19 C19        -9.9641   -2.6576   36.3302 C.3       1 UNK         0.1100 
     20 C20        -6.6564  -11.4459   37.7924 C.3       1 UNK         0.1818 
     21 N21        -6.9453   -7.0238   41.4016 N.2       1 UNK        -0.3633 
     22 N22        -6.2238   -8.1470   41.8782 N.2       1 UNK        -0.3633 
     23 N23        -7.2469   -9.2183   38.7691 N.2       1 UNK        -0.2500 
     24 N24        -7.0088   -8.5574   39.9190 N.pl3     1 UNK        -0.0934 
     25 O25        -8.3162   -2.7791   38.4993 O.3       1 UNK        -0.2850 
     26 O26       -11.1159   -6.3938   37.0021 O.3       1 UNK        -0.2850 
     27 O27       -10.4883   -3.8477   36.8971 O.3       1 UNK        -0.2850 
     28 O28        -5.3391  -11.8514   37.4501 O.3       1 UNK        -0.2850 
     29 S29        -5.7872  -10.6666   40.4520 S.3       1 UNK        -0.0028 
     30 H30        -6.8163  -14.7092   34.1320 H         1 UNK         0.1150 
     31 H31        -2.5749  -14.2459   34.7788 H         1 UNK         0.1150 
     32 H32        -7.2802  -13.1332   35.9407 H         1 UNK         0.1150 
     33 H33        -3.0342  -12.6464   36.6098 H         1 UNK         0.1150 
     34 H34        -7.0533   -4.7228   39.9251 H         1 UNK         0.1150 
     35 H35        -9.5488   -7.9252   38.6435 H         1 UNK         0.1150 
     36 H36        -3.5152  -15.2460   32.6190 H         1 UNK         0.0600 
     37 H37        -4.1793  -16.5573   33.6028 H         1 UNK         0.0600 
     38 H38        -5.2310  -15.6388   32.5176 H         1 UNK         0.0600 
     39 H39        -7.1495   -1.2181   39.1510 H         1 UNK         0.0300 
     40 H40        -6.2918   -2.7450   38.9971 H         1 UNK         0.0300 
     41 H41        -7.4145   -2.4732   40.3538 H         1 UNK         0.0300 
     42 H42       -12.3513   -7.9039   36.3597 H         1 UNK         0.0300 
     43 H43       -11.7869   -8.0855   38.0160 H         1 UNK         0.0300 
     44 H44       -10.6885   -8.4004   36.6492 H         1 UNK         0.0300 
     45 H45       -10.5520   -2.3962   35.4508 H         1 UNK         0.0300 
     46 H46        -8.9291   -2.7767   36.0072 H         1 UNK         0.0300 
     47 H47       -10.0383   -1.8228   37.0272 H         1 UNK         0.0300 
     48 H48        -7.1617  -11.0267   36.9204 H         1 UNK         0.0300 
     49 H49        -7.2359  -12.3008   38.1433 H         1 UNK         0.0300 
@<TRIPOS>BOND
     1    1    3 ar   
     2    1    8 ar   
     3    1   30 1    
     4    2    4 ar   
     5    2    8 ar   
     6    2   31 1    
     7    3    9 ar   
     8    3   32 1    
     9    4    9 ar   
    10    4   33 1    
    11    5    7 ar   
    12    5   10 ar   
    13    5   34 1    
    14    6    7 ar   
    15    6   11 ar   
    16    6   35 1    
    17    7   13 1    
    18    8   16 1    
    19    9   28 1    
    20   10   12 ar   
    21   10   25 1    
    22   11   12 ar   
    23   11   26 1    
    24   12   27 1    
    25   13   21 ar   
    26   13   24 ar   
    27   14   22 ar   
    28   14   24 ar   
    29   14   29 1    
    30   15   20 1    
    31   15   23 2    
    32   15   29 1    
    33   16   36 1    
    34   16   37 1    
    35   16   38 1    
    36   17   25 1    
    37   17   39 1    
    38   17   40 1    
    39   17   41 1    
    40   18   26 1    
    41   18   42 1    
    42   18   43 1    
    43   18   44 1    
    44   19   27 1    
    45   19   45 1    
    46   19   46 1    
    47   19   47 1    
    48   20   28 1    
    49   20   48 1    
    50   20   49 1    
    51   21   22 ar   
    52   23   24 1    
@<TRIPOS>SUBSTRUCTURE
     1 UNK         1 GROUP             0       ****    0 ROOT    
@<TRIPOS>MOLECULE
ZINC04383998_49
43   46    1
SMALL
USER_CHARGES


@<TRIPOS>ATOM
      1 C1         -4.0429  -12.5189   34.2890 C.2       1 UNK        -0.1540 
      2 C2         -4.6203  -11.2915   34.7182 C.2       1 UNK        -0.1540 
      3 C3         -7.7469   -5.9972   38.3963 C.ar      1 UNK        -0.1150 
      4 C4         -6.8668   -4.0445   39.5577 C.ar      1 UNK        -0.1150 
      5 C5         -3.5235  -13.1025   35.4091 C.2       1 UNK        -0.0190 
      6 C6         -6.9725   -5.4451   39.4382 C.ar      1 UNK         0.0000 
      7 C7         -8.4051   -5.1614   37.4629 C.ar      1 UNK         0.0850 
      8 C8         -7.5201   -3.1884   38.6398 C.ar      1 UNK         0.0850 
      9 C9         -8.2780   -3.7587   37.5930 C.ar      1 UNK         0.0850 
     10 C10        -4.4135  -11.2156   36.0679 C.2       1 UNK         0.1230 
     11 C11        -6.2817   -6.2973   40.4072 C.ar      1 UNK         0.4100 
     12 C12        -5.1434   -7.9316   41.3815 C.ar      1 UNK         0.4175 
     13 C13        -4.8754   -9.2161   39.3112 C.2       1 UNK         0.2453 
     14 C14        -4.7576  -10.2357   37.0457 C.2       1 UNK        -0.1150 
     15 C15        -4.4870  -10.2630   38.3622 C.2       1 UNK        -0.1150 
     16 C16        -9.3647   -7.0389   36.3020 C.3       1 UNK         0.1100 
     17 C17        -6.7665   -1.2119   39.7829 C.3       1 UNK         0.1100 
     18 C18        -8.2238   -2.7606   35.4891 C.3       1 UNK         0.1100 
     19 N19        -6.1314   -6.0079   41.7121 N.2       1 UNK        -0.3633 
     20 N20        -5.4105   -7.0631   42.3242 N.2       1 UNK        -0.3633 
     21 N21        -5.5605   -8.1020   39.0376 N.2       1 UNK        -0.2500 
     22 N22        -5.6707   -7.4684   40.2254 N.pl3     1 UNK        -0.0934 
     23 O23        -3.7408  -12.3203   36.5011 O.3       1 UNK        -0.1900 
     24 O24        -9.1776   -5.6369   36.4223 O.3       1 UNK        -0.2850 
     25 O25        -7.4558   -1.8111   38.6961 O.3       1 UNK        -0.2850 
     26 O26        -8.9203   -2.9281   36.7116 O.3       1 UNK        -0.2850 
     27 S27        -4.3667   -9.4646   41.0107 S.3       1 UNK        -0.0028 
     28 H28        -4.0105  -12.9240   33.2880 H         1 UNK         0.1260 
     29 H29        -5.1258  -10.5536   34.1124 H         1 UNK         0.1260 
     30 H30        -7.8338   -7.0699   38.3360 H         1 UNK         0.1150 
     31 H31        -6.2739   -3.6496   40.3689 H         1 UNK         0.1150 
     32 H32        -2.9941  -14.0252   35.5995 H         1 UNK         0.1420 
     33 H33        -5.2971   -9.3834   36.6583 H         1 UNK         0.1150 
     34 H34        -3.9479  -11.1074   38.7677 H         1 UNK         0.1150 
     35 H35       -10.0137   -7.2416   35.4502 H         1 UNK         0.0300 
     36 H36        -9.8460   -7.4553   37.1880 H         1 UNK         0.0300 
     37 H37        -8.4194   -7.5539   36.1259 H         1 UNK         0.0300 
     38 H38        -6.8483   -0.1278   39.7061 H         1 UNK         0.0300 
     39 H39        -5.7055   -1.4641   39.7690 H         1 UNK         0.0300 
     40 H40        -7.1973   -1.5073   40.7407 H         1 UNK         0.0300 
     41 H41        -8.7659   -2.0598   34.8548 H         1 UNK         0.0300 
     42 H42        -8.1307   -3.7015   34.9457 H         1 UNK         0.0300 
     43 H43        -7.2254   -2.3552   35.6598 H         1 UNK         0.0300 
@<TRIPOS>BOND
     1    1    2 1    
     2    1    5 2    
     3    1   28 1    
     4    2   10 2    
     5    2   29 1    
     6    3    6 ar   
     7    3    7 ar   
     8    3   30 1    
     9    4    6 ar   
    10    4    8 ar   
    11    4   31 1    
    12    5   23 1    
    13    5   32 1    
    14    6   11 1    
    15    7    9 ar   
    16    7   24 1    
    17    8    9 ar   
    18    8   25 1    
    19    9   26 1    
    20   10   14 1    
    21   10   23 1    
    22   11   19 ar   
    23   11   22 ar   
    24   12   20 ar   
    25   12   22 ar   
    26   12   27 1    
    27   13   15 1    
    28   13   21 2    
    29   13   27 1    
    30   14   15 2    
    31   14   33 1    
    32   15   34 1    
    33   16   24 1    
    34   16   35 1    
    35   16   36 1    
    36   16   37 1    
    37   17   25 1    
    38   17   38 1    
    39   17   39 1    
    40   17   40 1    
    41   18   26 1    
    42   18   41 1    
    43   18   42 1    
    44   18   43 1    
    45   19   20 ar   
    46   21   22 1    
@<TRIPOS>SUBSTRUCTURE
     1 UNK         1 GROUP             0       ****    0 ROOT    
@<TRIPOS>MOLECULE
ZINC04511710_104
41   44    1
SMALL
USER_CHARGES


@<TRIPOS>ATOM
      1 C1         -3.8091  -12.2206   35.5921 C.ar      1 UNK        -0.1150 
      2 C2         -4.7526  -11.1887   35.4260 C.ar      1 UNK        -0.1150 
      3 C3         -3.9554  -13.1451   36.6443 C.ar      1 UNK        -0.1150 
      4 C4         -9.4654   -7.0921   38.6482 C.ar      1 UNK        -0.1150 
      5 C5         -5.8421  -11.0812   36.3117 C.ar      1 UNK        -0.1150 
      6 C6         -5.0446  -13.0386   37.5312 C.ar      1 UNK        -0.1150 
      7 C7        -10.2160   -6.2591   37.8022 C.ar      1 UNK        -0.1150 
      8 C8         -7.9554   -5.2430   39.0910 C.ar      1 UNK        -0.1150 
      9 C9         -8.3215   -6.5888   39.2952 C.ar      1 UNK         0.0000 
     10 C10        -5.9923  -12.0056   37.3676 C.ar      1 UNK        -0.1150 
     11 C11        -9.8544   -4.9151   37.5812 C.ar      1 UNK         0.0850 
     12 C12        -8.7048   -4.3845   38.2440 C.ar      1 UNK         0.0850 
     13 C13        -7.5064   -7.4282   40.1757 C.ar      1 UNK         0.4100 
     14 C14        -6.3848   -9.1150   41.0677 C.ar      1 UNK         0.4175 
     15 C15        -6.9989  -10.7054   39.2663 C.2       1 UNK         0.1303 
     16 C16       -10.4196   -2.9126   36.3168 C.3       1 UNK         0.1100 
     17 C17        -7.2535   -2.5271   38.7863 C.3       1 UNK         0.1100 
     18 C18        -7.1636  -11.8782   38.3242 C.3       1 UNK         0.1100 
     19 N19        -6.9018   -7.0027   41.3000 N.2       1 UNK        -0.3633 
     20 N20        -6.1960   -8.0938   41.8655 N.2       1 UNK        -0.3633 
     21 N21        -7.5557   -9.5100   39.0347 N.2       1 UNK        -0.2500 
     22 N22        -7.1793   -8.7150   40.0561 N.pl3     1 UNK        -0.0934 
     23 O23       -10.7000   -4.2439   36.7179 O.3       1 UNK        -0.2850 
     24 O24        -8.3475   -3.0637   38.0550 O.3       1 UNK        -0.2850 
     25 S25        -6.0184  -10.8045   40.7720 S.3       1 UNK        -0.0028 
     26 H26        -2.9724  -12.3019   34.9132 H         1 UNK         0.1150 
     27 H27        -4.6396  -10.4775   34.6204 H         1 UNK         0.1150 
     28 H28        -3.2297  -13.9355   36.7712 H         1 UNK         0.1150 
     29 H29        -9.7770   -8.1148   38.8002 H         1 UNK         0.1150 
     30 H30        -6.5586  -10.2821   36.1816 H         1 UNK         0.1150 
     31 H31        -5.1441  -13.7525   38.3364 H         1 UNK         0.1150 
     32 H32       -11.0912   -6.6553   37.3087 H         1 UNK         0.1150 
     33 H33        -7.0757   -4.8934   39.6088 H         1 UNK         0.1150 
     34 H34       -11.1639   -2.5983   35.5856 H         1 UNK         0.0300 
     35 H35        -9.4428   -2.8337   35.8380 H         1 UNK         0.0300 
     36 H36       -10.4812   -2.2201   37.1570 H         1 UNK         0.0300 
     37 H37        -7.1514   -1.4677   38.5511 H         1 UNK         0.0300 
     38 H38        -6.3156   -3.0145   38.5169 H         1 UNK         0.0300 
     39 H39        -7.4113   -2.6087   39.8628 H         1 UNK         0.0300 
     40 H40        -8.0844  -11.7591   37.7519 H         1 UNK         0.0600 
     41 H41        -7.2760  -12.7913   38.9094 H         1 UNK         0.0600 
@<TRIPOS>BOND
     1    1    2 ar   
     2    1    3 ar   
     3    1   26 1    
     4    2    5 ar   
     5    2   27 1    
     6    3    6 ar   
     7    3   28 1    
     8    4    7 ar   
     9    4    9 ar   
    10    4   29 1    
    11    5   10 ar   
    12    5   30 1    
    13    6   10 ar   
    14    6   31 1    
    15    7   11 ar   
    16    7   32 1    
    17    8    9 ar   
    18    8   12 ar   
    19    8   33 1    
    20    9   13 1    
    21   10   18 1    
    22   11   12 ar   
    23   11   23 1    
    24   12   24 1    
    25   13   19 ar   
    26   13   22 ar   
    27   14   20 ar   
    28   14   22 ar   
    29   14   25 1    
    30   15   18 1    
    31   15   21 2    
    32   15   25 1    
    33   16   23 1    
    34   16   34 1    
    35   16   35 1    
    36   16   36 1    
    37   17   24 1    
    38   17   37 1    
    39   17   38 1    
    40   17   39 1    
    41   18   40 1    
    42   18   41 1    
    43   19   20 ar   
    44   21   22 1    
@<TRIPOS>SUBSTRUCTURE
     1 UNK         1 GROUP             0       ****    0 ROOT    
@<TRIPOS>MOLECULE
ZINC04511712_94
41   44    1
SMALL
USER_CHARGES


@<TRIPOS>ATOM
      1 C1         -9.4599   -7.0932   38.6008 C.ar      1 UNK        -0.1150 
      2 C2         -5.9085  -11.1501   36.2580 C.ar      1 UNK        -0.1150 
      3 C3         -5.0024  -12.9827   37.5907 C.ar      1 UNK        -0.1150 
      4 C4        -10.1955   -6.2557   37.7459 C.ar      1 UNK        -0.1150 
      5 C5         -4.8174  -11.2547   35.3733 C.ar      1 UNK        -0.1150 
      6 C6         -3.9116  -13.0846   36.7049 C.ar      1 UNK        -0.1150 
      7 C7         -7.9539   -5.2484   39.0742 C.ar      1 UNK        -0.1150 
      8 C8         -8.3272   -6.5934   39.2699 C.ar      1 UNK         0.0000 
      9 C9         -6.0053  -12.0143   37.3697 C.ar      1 UNK        -0.1150 
     10 C10        -9.8312   -4.9102   37.5395 C.ar      1 UNK         0.0850 
     11 C11        -8.6853   -4.3869   38.2142 C.ar      1 UNK         0.0850 
     12 C12        -3.8189  -12.2217   35.5962 C.ar      1 UNK         0.1800 
     13 C13        -7.5300   -7.4363   40.1633 C.ar      1 UNK         0.4100 
     14 C14        -6.4314   -9.1272   41.0758 C.ar      1 UNK         0.4175 
     15 C15        -7.0208  -10.7170   39.2655 C.2       1 UNK         0.1303 
     16 C16       -10.4972   -2.8439   36.4370 C.3       1 UNK         0.1100 
     17 C17        -7.1887   -2.5555   38.7214 C.3       1 UNK         0.1100 
     18 C18        -7.1783  -11.8919   38.3250 C.3       1 UNK         0.1100 
     19 N19        -6.9444   -7.0132   41.2984 N.2       1 UNK        -0.3633 
     20 N20        -6.2529   -8.1067   41.8765 N.2       1 UNK        -0.3633 
     21 N21        -7.5659   -9.5188   39.0212 N.2       1 UNK        -0.2500 
     22 N22        -7.2050   -8.7244   40.0490 N.pl3     1 UNK        -0.0934 
     23 O23       -10.6643   -4.2330   36.6689 O.3       1 UNK        -0.2850 
     24 O24        -8.3085   -3.0730   38.0159 O.3       1 UNK        -0.2850 
     25 S25        -6.0674  -10.8186   40.7883 S.3       1 UNK        -0.0028 
     26 Cl26       -2.4829  -12.3487   34.5136 Cl        1 UNK        -0.1800 
     27 H27        -9.7761   -8.1155   38.7447 H         1 UNK         0.1150 
     28 H28        -6.6668  -10.3999   36.0825 H         1 UNK         0.1150 
     29 H29        -5.0602  -13.6494   38.4390 H         1 UNK         0.1150 
     30 H30       -11.0638   -6.6484   37.2374 H         1 UNK         0.1150 
     31 H31        -4.7432  -10.5922   34.5234 H         1 UNK         0.1150 
     32 H32        -3.1425  -13.8239   36.8734 H         1 UNK         0.1150 
     33 H33        -7.0816   -4.9023   39.6067 H         1 UNK         0.1150 
     34 H34       -11.2954   -2.4955   35.7821 H         1 UNK         0.0300 
     35 H35        -9.5529   -2.6332   35.9344 H         1 UNK         0.0300 
     36 H36       -10.5641   -2.2700   37.3619 H         1 UNK         0.0300 
     37 H37        -7.0554   -1.5056   38.4606 H         1 UNK         0.0300 
     38 H38        -6.2701   -3.0788   38.4528 H         1 UNK         0.0300 
     39 H39        -7.3362   -2.6083   39.8011 H         1 UNK         0.0300 
     40 H40        -8.1008  -11.7792   37.7540 H         1 UNK         0.0600 
     41 H41        -7.2846  -12.8058   38.9103 H         1 UNK         0.0600 
@<TRIPOS>BOND
     1    1    4 ar   
     2    1    8 ar   
     3    1   27 1    
     4    2    5 ar   
     5    2    9 ar   
     6    2   28 1    
     7    3    6 ar   
     8    3    9 ar   
     9    3   29 1    
    10    4   10 ar   
    11    4   30 1    
    12    5   12 ar   
    13    5   31 1    
    14    6   12 ar   
    15    6   32 1    
    16    7    8 ar   
    17    7   11 ar   
    18    7   33 1    
    19    8   13 1    
    20    9   18 1    
    21   10   11 ar   
    22   10   23 1    
    23   11   24 1    
    24   12   26 1    
    25   13   19 ar   
    26   13   22 ar   
    27   14   20 ar   
    28   14   22 ar   
    29   14   25 1    
    30   15   18 1    
    31   15   21 2    
    32   15   25 1    
    33   16   23 1    
    34   16   34 1    
    35   16   35 1    
    36   16   36 1    
    37   17   24 1    
    38   17   37 1    
    39   17   38 1    
    40   17   39 1    
    41   18   40 1    
    42   18   41 1    
    43   19   20 ar   
    44   21   22 1    
@<TRIPOS>SUBSTRUCTURE
     1 UNK         1 GROUP             0       ****    0 ROOT    
@<TRIPOS>MOLECULE
ZINC04535142_144
53   55    1
SMALL
USER_CHARGES


@<TRIPOS>ATOM
      1 C1        -12.5939  -18.0328   35.1979 C.ar      1 UNK        -0.1150 
      2 C2        -11.6587  -17.4143   36.0439 C.ar      1 UNK        -0.1150 
      3 C3        -13.5852  -18.8635   35.7472 C.ar      1 UNK        -0.1150 
      4 C4        -11.7055  -17.6375   37.4327 C.ar      1 UNK        -0.1150 
      5 C5        -14.9312  -14.9996   38.4405 C.ar      1 UNK        -0.1150 
      6 C6        -14.1117  -12.8086   39.1027 C.ar      1 UNK        -0.1150 
      7 C7        -14.1046  -14.2076   39.2650 C.ar      1 UNK        -0.1150 
      8 C8        -13.6452  -19.0789   37.1398 C.ar      1 UNK        -0.1150 
      9 C9        -12.6872  -18.4839   38.0063 C.ar      1 UNK         0.2100 
     10 C10       -15.7295  -14.4047   37.4358 C.ar      1 UNK         0.0850 
     11 C11       -14.9113  -12.1842   38.1138 C.ar      1 UNK         0.0850 
     12 C12       -15.7064  -13.0014   37.2589 C.ar      1 UNK         0.0850 
     13 C13       -13.2548  -14.8253   40.3386 C.2       1 UNK         0.6150 
     14 C14       -14.7654  -19.9427   37.6903 C.3       1 UNK        -0.0050 
     15 C15       -15.0488  -19.6103   39.1540 C.3       1 UNK        -0.1200 
     16 C16       -13.7409  -19.6343   39.9439 C.3       1 UNK         0.0900 
     17 C17       -16.5375  -16.5437   36.6813 C.3       1 UNK         0.1100 
     18 C18       -14.2428   -9.9945   38.8828 C.3       1 UNK         0.1100 
     19 C19       -16.0838  -11.3774   35.5216 C.3       1 UNK         0.1100 
     20 C20       -11.7022  -18.2310   40.3217 C.3       1 UNK         0.0900 
     21 C21       -12.0520  -16.8922   41.0024 C.3       1 UNK         0.0800 
     22 N22       -12.7516  -18.7020   39.4071 N.pl3     1 UNK        -0.6300 
     23 N23       -12.8761  -16.0851   40.1219 N.am      1 UNK        -0.5000 
     24 O24       -12.8901  -14.1802   41.3193 O.2       1 UNK        -0.5000 
     25 O25       -16.5466  -15.1282   36.5900 O.3       1 UNK        -0.2850 
     26 O26       -14.9617  -10.8112   37.9698 O.3       1 UNK        -0.2850 
     27 O27       -16.5165  -12.5148   36.2519 O.3       1 UNK        -0.2850 
     28 H28       -12.5573  -17.8622   34.1313 H         1 UNK         0.1150 
     29 H29       -10.9033  -16.7636   35.6281 H         1 UNK         0.1150 
     30 H30       -14.3109  -19.3259   35.0943 H         1 UNK         0.1150 
     31 H31       -10.9750  -17.1251   38.0376 H         1 UNK         0.1150 
     32 H32       -14.9479  -16.0675   38.5911 H         1 UNK         0.1150 
     33 H33       -13.4896  -12.2293   39.7681 H         1 UNK         0.1150 
     34 H34       -15.6696  -19.8114   37.0953 H         1 UNK         0.0600 
     35 H35       -14.4668  -20.9871   37.5948 H         1 UNK         0.0600 
     36 H36       -15.5020  -18.6210   39.2305 H         1 UNK         0.0600 
     37 H37       -15.7649  -20.3174   39.5739 H         1 UNK         0.0600 
     38 H38       -13.9443  -19.3891   40.9876 H         1 UNK         0.0600 
     39 H39       -13.3170  -20.6398   39.9348 H         1 UNK         0.0600 
     40 H40       -17.2008  -16.9580   35.9224 H         1 UNK         0.0300 
     41 H41       -16.8943  -16.8851   37.6536 H         1 UNK         0.0300 
     42 H42       -15.5399  -16.9426   36.5000 H         1 UNK         0.0300 
     43 H43       -14.4294   -8.9464   38.6489 H         1 UNK         0.0300 
     44 H44       -13.1675  -10.1613   38.8060 H         1 UNK         0.0300 
     45 H45       -14.5653  -10.1632   39.9113 H         1 UNK         0.0300 
     46 H46       -16.5331  -11.4003   34.5290 H         1 UNK         0.0300 
     47 H47       -15.0010  -11.3566   35.3906 H         1 UNK         0.0300 
     48 H48       -16.4097  -10.4551   36.0026 H         1 UNK         0.0300 
     49 H49       -11.5348  -18.9849   41.0927 H         1 UNK         0.0600 
     50 H50       -10.7427  -18.1597   39.8113 H         1 UNK         0.0600 
     51 H51       -12.6225  -17.0794   41.9134 H         1 UNK         0.0600 
     52 H52       -11.1483  -16.3563   41.2975 H         1 UNK         0.0600 
     53 H53       -13.1998  -16.5698   39.2962 H         1 UNK         0.3000 
@<TRIPOS>BOND
     1    1    2 ar   
     2    1    3 ar   
     3    1   28 1    
     4    2    4 ar   
     5    2   29 1    
     6    3    8 ar   
     7    3   30 1    
     8    4    9 ar   
     9    4   31 1    
    10    5    7 ar   
    11    5   10 ar   
    12    5   32 1    
    13    6    7 ar   
    14    6   11 ar   
    15    6   33 1    
    16    7   13 1    
    17    8    9 ar   
    18    8   14 1    
    19    9   22 1    
    20   10   12 ar   
    21   10   25 1    
    22   11   12 ar   
    23   11   26 1    
    24   12   27 1    
    25   13   23 am   BACKBONE|DICT|INTERRES
    26   13   24 2    
    27   14   15 1    
    28   14   34 1    
    29   14   35 1    
    30   15   16 1    
    31   15   36 1    
    32   15   37 1    
    33   16   22 1    
    34   16   38 1    
    35   16   39 1    
    36   17   25 1    
    37   17   40 1    
    38   17   41 1    
    39   17   42 1    
    40   18   26 1    
    41   18   43 1    
    42   18   44 1    
    43   18   45 1    
    44   19   27 1    
    45   19   46 1    
    46   19   47 1    
    47   19   48 1    
    48   20   21 1    
    49   20   22 1    
    50   20   49 1    
    51   20   50 1    
    52   21   23 1    
    53   21   51 1    
    54   21   52 1    
    55   23   53 1    
@<TRIPOS>SUBSTRUCTURE
     1 UNK         1 GROUP             0       ****    0 ROOT    
@<TRIPOS>MOLECULE
ZINC04581260_277
45   47    1
SMALL
USER_CHARGES


@<TRIPOS>ATOM
      1 C1         -9.5224   -6.8466   39.1740 C.ar      1 UNK        -0.1150 
      2 C2        -10.2526   -6.1393   38.2020 C.ar      1 UNK        -0.1150 
      3 C3        -10.2549   -8.9464   38.1940 C.ar      1 UNK        -0.1150 
      4 C4         -7.5763  -14.1261   37.2795 C.2       1 UNK        -0.0738 
      5 C5         -9.5178   -8.2577   39.1865 C.ar      1 UNK        -0.1150 
      6 C6         -6.8839  -14.2043   36.0335 C.2       1 UNK        -0.0677 
      7 C7        -10.9891   -6.8302   37.2096 C.ar      1 UNK         0.0850 
      8 C8        -10.9826   -8.2435   37.2015 C.ar      1 UNK         0.0850 
      9 C9         -7.6675  -12.8468   37.7658 C.2       1 UNK        -0.1787 
     10 C10        -6.4559  -12.9773   35.5939 C.2       1 UNK        -0.1787 
     11 C11        -8.7249   -8.9684   40.2362 C.2       1 UNK         0.5370 
     12 C12        -8.3095  -12.3875   38.9948 C.2       1 UNK         0.6250 
     13 C13        -6.6449  -15.4626   35.2466 C.3       1 UNK        -0.0050 
     14 C14        -5.6958  -12.7283   34.3333 C.3       1 UNK        -0.0050 
     15 C15        -5.5874  -15.2701   34.1379 C.3       1 UNK        -0.1200 
     16 C16        -5.7636  -13.9371   33.3814 C.3       1 UNK        -0.1200 
     17 C17       -11.7556   -4.7809   36.2099 C.3       1 UNK         0.1100 
     18 C18       -11.6131  -10.2771   36.0742 C.3       1 UNK         0.1100 
     19 C19        -8.8273  -10.4915   40.3249 C.3       1 UNK         0.2380 
     20 O20        -8.0127   -8.3786   41.0490 O.2       1 UNK        -0.4700 
     21 O21        -8.9191  -13.1499   39.7448 O.2       1 UNK        -0.4300 
     22 O22       -11.7237   -6.1998   36.2263 O.3       1 UNK        -0.2850 
     23 O23       -11.7041   -8.8660   36.2034 O.3       1 UNK        -0.2850 
     24 O24        -8.1862  -11.0742   39.2024 O.3       1 UNK        -0.3300 
     25 S25        -6.9053  -11.6977   36.6890 S.3       1 UNK         0.0328 
     26 H26        -8.9634   -6.2940   39.9172 H         1 UNK         0.1150 
     27 H27       -10.2271   -5.0615   38.2386 H         1 UNK         0.1150 
     28 H28       -10.2589  -10.0232   38.1882 H         1 UNK         0.1150 
     29 H29        -7.9847  -14.9956   37.7742 H         1 UNK         0.1211 
     30 H30        -6.3416  -16.2763   35.9062 H         1 UNK         0.0600 
     31 H31        -7.5832  -15.7785   34.7895 H         1 UNK         0.0600 
     32 H32        -6.0722  -11.8349   33.8335 H         1 UNK         0.0600 
     33 H33        -4.6550  -12.5246   34.5875 H         1 UNK         0.0600 
     34 H34        -4.5963  -15.2754   34.5937 H         1 UNK         0.0600 
     35 H35        -5.6099  -16.1134   33.4471 H         1 UNK         0.0600 
     36 H36        -6.7371  -13.9462   32.8893 H         1 UNK         0.0600 
     37 H37        -5.0200  -13.8358   32.5902 H         1 UNK         0.0600 
     38 H38       -12.3798   -4.4460   35.3816 H         1 UNK         0.0300 
     39 H39       -10.7594   -4.3613   36.0626 H         1 UNK         0.0300 
     40 H40       -12.1859   -4.3807   37.1290 H         1 UNK         0.0300 
     41 H41       -12.1801  -10.5939   35.1991 H         1 UNK         0.0300 
     42 H42       -12.0367  -10.7850   36.9411 H         1 UNK         0.0300 
     43 H43       -10.5808  -10.6010   35.9317 H         1 UNK         0.0300 
     44 H44        -9.8782  -10.7804   40.3699 H         1 UNK         0.0300 
     45 H45        -8.3505  -10.8369   41.2430 H         1 UNK         0.0300 
@<TRIPOS>BOND
     1    1    2 ar   
     2    1    5 ar   
     3    1   26 1    
     4    2    7 ar   
     5    2   27 1    
     6    3    5 ar   
     7    3    8 ar   
     8    3   28 1    
     9    4    6 1    
    10    4    9 2    
    11    4   29 1    
    12    5   11 1    
    13    6   10 2    
    14    6   13 1    
    15    7    8 ar   
    16    7   22 1    
    17    8   23 1    
    18    9   12 1    
    19    9   25 1    
    20   10   14 1    
    21   10   25 1    
    22   11   19 1    
    23   11   20 2    
    24   12   21 2    
    25   12   24 1    
    26   13   15 1    
    27   13   30 1    
    28   13   31 1    
    29   14   16 1    
    30   14   32 1    
    31   14   33 1    
    32   15   16 1    
    33   15   34 1    
    34   15   35 1    
    35   16   36 1    
    36   16   37 1    
    37   17   22 1    
    38   17   38 1    
    39   17   39 1    
    40   17   40 1    
    41   18   23 1    
    42   18   41 1    
    43   18   42 1    
    44   18   43 1    
    45   19   24 1    
    46   19   44 1    
    47   19   45 1    
@<TRIPOS>SUBSTRUCTURE
     1 UNK         1 GROUP             0       ****    0 ROOT    
@<TRIPOS>MOLECULE
ZINC04581388_256
42   44    1
SMALL
USER_CHARGES


@<TRIPOS>ATOM
      1 C1        -10.1165   -8.5092   38.2507 C.ar      1 UNK        -0.1150 
      2 C2        -10.8457   -7.7742   37.3013 C.ar      1 UNK        -0.1150 
      3 C3         -9.2836   -6.4276   39.1821 C.ar      1 UNK        -0.1150 
      4 C4         -7.0902  -13.7264   37.3777 C.2       1 UNK        -0.0738 
      5 C5         -9.3222   -7.8395   39.2057 C.ar      1 UNK        -0.1150 
      6 C6         -6.4791  -13.7612   36.0921 C.2       1 UNK        -0.0677 
      7 C7        -10.8085   -6.3669   37.2682 C.ar      1 UNK         0.0850 
      8 C8        -10.0174   -5.6698   38.2312 C.ar      1 UNK         0.0850 
      9 C9         -7.3289  -12.4332   37.7894 C.2       1 UNK        -0.1787 
     10 C10        -6.2722  -12.5406   35.5617 C.2       1 UNK        -0.1787 
     11 C11        -8.5187   -8.5693   40.2336 C.2       1 UNK         0.5370 
     12 C12        -7.9517  -11.9846   39.0325 C.2       1 UNK         0.6250 
     13 C13        -6.0073  -14.8314   35.1731 C.3       1 UNK        -0.0050 
     14 C14        -5.6426  -12.5370   34.2291 C.3       1 UNK        -0.0050 
     15 C15        -5.3458  -14.0438   34.0028 C.3       1 UNK        -0.1200 
     16 C16       -11.5210   -4.4184   35.9965 C.3       1 UNK         0.1100 
     17 C17        -9.1965   -3.6042   39.1874 C.3       1 UNK         0.1100 
     18 C18        -8.6236  -10.0932   40.2968 C.3       1 UNK         0.2380 
     19 O19        -7.7910   -7.9955   41.0446 O.2       1 UNK        -0.4700 
     20 O20        -8.4013  -12.7709   39.8661 O.2       1 UNK        -0.4300 
     21 O21       -11.5820   -5.8093   36.2677 O.3       1 UNK        -0.2850 
     22 O22        -9.9875   -4.2889   38.2262 O.3       1 UNK        -0.2850 
     23 O23        -7.9928  -10.6561   39.1593 O.3       1 UNK        -0.3300 
     24 S24        -6.7979  -11.2495   36.5946 S.3       1 UNK         0.0328 
     25 H25       -10.1791   -9.5866   38.2166 H         1 UNK         0.1150 
     26 H26       -11.4462   -8.2984   36.5720 H         1 UNK         0.1150 
     27 H27        -8.6716   -5.9364   39.9231 H         1 UNK         0.1150 
     28 H28        -7.3315  -14.6139   37.9449 H         1 UNK         0.1211 
     29 H29        -5.2963  -15.4997   35.6599 H         1 UNK         0.0600 
     30 H30        -6.8452  -15.4310   34.8160 H         1 UNK         0.0600 
     31 H31        -6.3343  -12.1475   33.4814 H         1 UNK         0.0600 
     32 H32        -4.7357  -11.9320   34.2162 H         1 UNK         0.0600 
     33 H33        -4.2670  -14.2019   34.0315 H         1 UNK         0.0600 
     34 H34        -5.6935  -14.3879   33.0283 H         1 UNK         0.0600 
     35 H35       -12.1073   -4.2056   35.1028 H         1 UNK         0.0300 
     36 H36       -10.4998   -4.0900   35.7991 H         1 UNK         0.0300 
     37 H37       -11.9504   -3.8339   36.8108 H         1 UNK         0.0300 
     38 H38        -9.2924   -2.5301   39.0302 H         1 UNK         0.0300 
     39 H39        -8.1396   -3.8562   39.0891 H         1 UNK         0.0300 
     40 H40        -9.5298   -3.8173   40.2040 H         1 UNK         0.0300 
     41 H41        -9.6722  -10.3891   40.3437 H         1 UNK         0.0300 
     42 H42        -8.1394  -10.4490   41.2075 H         1 UNK         0.0300 
@<TRIPOS>BOND
     1    1    2 ar   
     2    1    5 ar   
     3    1   25 1    
     4    2    7 ar   
     5    2   26 1    
     6    3    5 ar   
     7    3    8 ar   
     8    3   27 1    
     9    4    6 1    
    10    4    9 2    
    11    4   28 1    
    12    5   11 1    
    13    6   10 2    
    14    6   13 1    
    15    7    8 ar   
    16    7   21 1    
    17    8   22 1    
    18    9   12 1    
    19    9   24 1    
    20   10   14 1    
    21   10   24 1    
    22   11   18 1    
    23   11   19 2    
    24   12   20 2    
    25   12   23 1    
    26   13   15 1    
    27   13   29 1    
    28   13   30 1    
    29   14   15 1    
    30   14   31 1    
    31   14   32 1    
    32   15   33 1    
    33   15   34 1    
    34   16   21 1    
    35   16   35 1    
    36   16   36 1    
    37   16   37 1    
    38   17   22 1    
    39   17   38 1    
    40   17   39 1    
    41   17   40 1    
    42   18   23 1    
    43   18   41 1    
    44   18   42 1    
@<TRIPOS>SUBSTRUCTURE
     1 UNK         1 GROUP             0       ****    0 ROOT    
@<TRIPOS>MOLECULE
ZINC04589642_60
46   48    1
SMALL
USER_CHARGES


@<TRIPOS>ATOM
      1 C1         -5.0600  -11.6218   38.9223 C.ar      1 UNK        -0.1150 
      2 C2         -5.0412  -12.7821   38.1261 C.ar      1 UNK        -0.1150 
      3 C3         -6.9684   -3.8698   39.7942 C.ar      1 UNK        -0.1150 
      4 C4         -6.3916   -5.2516   37.8950 C.ar      1 UNK        -0.1150 
      5 C5         -4.7871  -11.4123   36.1375 C.ar      1 UNK        -0.1150 
      6 C6         -4.9463  -10.3421   38.3351 C.ar      1 UNK         0.0044 
      7 C7         -6.3448   -5.0238   39.2859 C.ar      1 UNK         0.0000 
      8 C8         -4.9067  -12.6931   36.7289 C.ar      1 UNK         0.0850 
      9 C9         -7.6251   -2.9479   38.9586 C.ar      1 UNK         0.0850 
     10 C10        -7.0568   -4.3563   37.0211 C.ar      1 UNK         0.0850 
     11 C11        -7.7033   -3.2086   37.5593 C.ar      1 UNK         0.0850 
     12 C12        -4.8026  -10.2418   36.9240 C.ar      1 UNK         0.1800 
     13 C13        -4.9862   -9.1716   39.2506 C.2       1 UNK         0.4703 
     14 C14        -5.3197   -7.2293   40.0757 C.2       1 UNK         0.1225 
     15 C15        -4.6492   -8.0355   41.0893 C.2       1 UNK         0.5100 
     16 C16        -5.6948   -5.9431   40.2449 C.2       1 UNK        -0.1150 
     17 C17        -4.7598  -13.8222   34.6146 C.3       1 UNK         0.1100 
     18 C18        -8.4607   -0.6746   38.9016 C.3       1 UNK         0.1100 
     19 C19        -6.4522   -5.6853   35.0968 C.3       1 UNK         0.1100 
     20 C20        -9.3507   -2.9074   35.8608 C.3       1 UNK         0.1100 
     21 N21        -5.4913   -8.0422   38.9719 N.2       1 UNK        -0.5122 
     22 O22        -4.3172   -7.7087   42.2279 O.2       1 UNK        -0.4300 
     23 O23        -4.4720   -9.2112   40.5168 O.3       1 UNK        -0.1650 
     24 O24        -4.8969  -13.8786   36.0274 O.3       1 UNK        -0.2850 
     25 O25        -8.1728   -1.8648   39.6194 O.3       1 UNK        -0.2850 
     26 O26        -7.0859   -4.5410   35.6516 O.3       1 UNK        -0.2850 
     27 O27        -8.3926   -2.3379   36.7434 O.3       1 UNK        -0.2850 
     28 Cl28       -4.6032   -8.7331   36.0964 Cl        1 UNK        -0.1800 
     29 H29        -5.1700  -11.7255   39.9927 H         1 UNK         0.1150 
     30 H30        -5.1321  -13.7541   38.5902 H         1 UNK         0.1150 
     31 H31        -6.9445   -3.6707   40.8557 H         1 UNK         0.1150 
     32 H32        -5.8911   -6.1172   37.4979 H         1 UNK         0.1150 
     33 H33        -4.6739  -11.2964   35.0708 H         1 UNK         0.1150 
     34 H34        -5.4620   -5.4988   41.2037 H         1 UNK         0.1150 
     35 H35        -4.7699  -14.8349   34.2117 H         1 UNK         0.0300 
     36 H36        -3.8147  -13.3615   34.3235 H         1 UNK         0.0300 
     37 H37        -5.5853  -13.2767   34.1550 H         1 UNK         0.0300 
     38 H38        -8.5850    0.1455   39.6084 H         1 UNK         0.0300 
     39 H39        -9.3937   -0.7641   38.3449 H         1 UNK         0.0300 
     40 H40        -7.6512   -0.3998   38.2238 H         1 UNK         0.0300 
     41 H41        -6.5830   -5.6787   34.0149 H         1 UNK         0.0300 
     42 H42        -6.8925   -6.6091   35.4750 H         1 UNK         0.0300 
     43 H43        -5.3797   -5.6856   35.2969 H         1 UNK         0.0300 
     44 H44       -10.1966   -2.2276   35.7649 H         1 UNK         0.0300 
     45 H45        -9.7366   -3.8632   36.2197 H         1 UNK         0.0300 
     46 H46        -8.9293   -3.0455   34.8652 H         1 UNK         0.0300 
@<TRIPOS>BOND
     1    1    2 ar   
     2    1    6 ar   
     3    1   29 1    
     4    2    8 ar   
     5    2   30 1    
     6    3    7 ar   
     7    3    9 ar   
     8    3   31 1    
     9    4    7 ar   
    10    4   10 ar   
    11    4   32 1    
    12    5    8 ar   
    13    5   12 ar   
    14    5   33 1    
    15    6   12 ar   
    16    6   13 1    
    17    7   16 1    
    18    8   24 1    
    19    9   11 ar   
    20    9   25 1    
    21   10   11 ar   
    22   10   26 1    
    23   11   27 1    
    24   12   28 1    
    25   13   21 2    
    26   13   23 1    
    27   14   15 1    
    28   14   16 2    
    29   14   21 1    
    30   15   22 2    
    31   15   23 1    
    32   16   34 1    
    33   17   24 1    
    34   17   35 1    
    35   17   36 1    
    36   17   37 1    
    37   18   25 1    
    38   18   38 1    
    39   18   39 1    
    40   18   40 1    
    41   19   26 1    
    42   19   41 1    
    43   19   42 1    
    44   19   43 1    
    45   20   27 1    
    46   20   44 1    
    47   20   45 1    
    48   20   46 1    
@<TRIPOS>SUBSTRUCTURE
     1 UNK         1 GROUP             0       ****    0 ROOT    
@<TRIPOS>MOLECULE
ZINC04599622_157
45   46    1
SMALL
USER_CHARGES


@<TRIPOS>ATOM
      1 C1         -8.4424  -13.4939   35.2542 C.ar      1 UNK        -0.1150 
      2 C2         -7.3930  -15.3238   36.4704 C.ar      1 UNK        -0.1150 
      3 C3         -8.5636  -12.7657   36.4536 C.ar      1 UNK        -0.1150 
      4 C4         -7.5139  -14.5947   37.6690 C.ar      1 UNK        -0.1150 
      5 C5        -10.3568   -7.4312   39.2519 C.ar      1 UNK        -0.1150 
      6 C6        -11.1418   -9.5741   38.4246 C.ar      1 UNK        -0.1150 
      7 C7        -10.3889   -8.8358   39.3608 C.ar      1 UNK        -0.1150 
      8 C8         -7.8571  -14.7759   35.2585 C.ar      1 UNK        -0.1150 
      9 C9         -8.0969  -13.3108   37.6726 C.ar      1 UNK         0.2000 
     10 C10       -11.0416   -6.7510   38.2136 C.ar      1 UNK         0.0850 
     11 C11       -11.8198   -8.9270   37.3663 C.ar      1 UNK         0.0850 
     12 C12       -11.7610   -7.5180   37.2487 C.ar      1 UNK         0.0850 
     13 C13        -9.1035  -10.8636   40.2937 C.2       1 UNK        -0.1150 
     14 C14        -8.6985  -11.3539   39.1060 C.2       1 UNK        -0.0970 
     15 C15        -9.6405   -9.4953   40.4744 C.2       1 UNK         0.5850 
     16 C16        -7.7221  -15.5631   33.9715 C.3       1 UNK        -0.0650 
     17 C17       -10.3818   -4.6100   39.1252 C.3       1 UNK         0.1100 
     18 C18       -12.6087  -11.0237   36.4733 C.3       1 UNK         0.1100 
     19 C19       -12.0835   -5.7393   35.6341 C.3       1 UNK         0.1100 
     20 N20        -8.2027  -12.6328   38.8954 N.pl3     1 UNK        -0.5717 
     21 O21        -9.4452   -8.9032   41.5347 O.2       1 UNK        -0.4700 
     22 O22       -11.0447   -5.3721   38.1263 O.3       1 UNK        -0.2850 
     23 O23       -12.5481   -9.6064   36.4095 O.3       1 UNK        -0.2850 
     24 O24       -12.4622   -6.9936   36.1785 O.3       1 UNK        -0.2850 
     25 H25        -8.8031  -13.0602   34.3327 H         1 UNK         0.1150 
     26 H26        -6.9417  -16.3054   36.4857 H         1 UNK         0.1150 
     27 H27        -9.0249  -11.7918   36.4120 H         1 UNK         0.1150 
     28 H28        -7.1515  -15.0326   38.5871 H         1 UNK         0.1150 
     29 H29        -9.7922   -6.8888   39.9953 H         1 UNK         0.1150 
     30 H30       -11.1960  -10.6458   38.5343 H         1 UNK         0.1150 
     31 H31        -9.0341  -11.4680   41.1852 H         1 UNK         0.1150 
     32 H32        -8.7296  -10.7401   38.2176 H         1 UNK         0.1150 
     33 H33        -6.6751  -15.6197   33.6727 H         1 UNK         0.0600 
     34 H34        -8.0975  -16.5782   34.1040 H         1 UNK         0.0600 
     35 H35        -8.2837  -15.0992   33.1599 H         1 UNK         0.0600 
     36 H36       -10.5120   -3.5494   38.9106 H         1 UNK         0.0300 
     37 H37        -9.3100   -4.8127   39.1371 H         1 UNK         0.0300 
     38 H38       -10.7998   -4.7976   40.1152 H         1 UNK         0.0300 
     39 H39       -13.2043  -11.3945   35.6394 H         1 UNK         0.0300 
     40 H40       -13.0863  -11.3613   37.3938 H         1 UNK         0.0300 
     41 H41       -11.6171  -11.4713   36.3931 H         1 UNK         0.0300 
     42 H42       -12.4769   -5.6600   34.6208 H         1 UNK         0.0300 
     43 H43       -11.0000   -5.6276   35.5733 H         1 UNK         0.0300 
     44 H44       -12.5070   -4.9155   36.2091 H         1 UNK         0.0300 
     45 H45        -7.9543  -13.1786   39.7089 H         1 UNK         0.3537 
@<TRIPOS>BOND
     1    1    3 ar   
     2    1    8 ar   
     3    1   25 1    
     4    2    4 ar   
     5    2    8 ar   
     6    2   26 1    
     7    3    9 ar   
     8    3   27 1    
     9    4    9 ar   
    10    4   28 1    
    11    5    7 ar   
    12    5   10 ar   
    13    5   29 1    
    14    6    7 ar   
    15    6   11 ar   
    16    6   30 1    
    17    7   15 1    
    18    8   16 1    
    19    9   20 1    
    20   10   12 ar   
    21   10   22 1    
    22   11   12 ar   
    23   11   23 1    
    24   12   24 1    
    25   13   14 2    
    26   13   15 1    
    27   13   31 1    
    28   14   20 1    
    29   14   32 1    
    30   15   21 2    
    31   16   33 1    
    32   16   34 1    
    33   16   35 1    
    34   17   22 1    
    35   17   36 1    
    36   17   37 1    
    37   17   38 1    
    38   18   23 1    
    39   18   39 1    
    40   18   40 1    
    41   18   41 1    
    42   19   24 1    
    43   19   42 1    
    44   19   43 1    
    45   19   44 1    
    46   20   45 1    
@<TRIPOS>SUBSTRUCTURE
     1 UNK         1 GROUP             0       ****    0 ROOT    
@<TRIPOS>MOLECULE
ZINC04664932_8
48   51    1
SMALL
USER_CHARGES


@<TRIPOS>ATOM
      1 C1         -4.4412  -11.5587   39.1933 C.ar      1 UNK        -0.1150 
      2 C2         -4.2714  -12.6208   38.2859 C.ar      1 UNK        -0.1150 
      3 C3         -7.7305   -5.9001   38.5357 C.ar      1 UNK        -0.1150 
      4 C4         -6.7888   -3.8694   39.4960 C.ar      1 UNK        -0.1150 
      5 C5         -5.0595  -10.0946   37.3644 C.ar      1 UNK        -0.1150 
      6 C6         -6.9185   -5.2737   39.5053 C.ar      1 UNK         0.0000 
      7 C7         -4.8396  -10.2771   38.7499 C.ar      1 UNK         0.0000 
      8 C8         -4.4947  -12.4259   36.9091 C.ar      1 UNK        -0.1150 
      9 C9         -4.8903  -11.1510   36.4443 C.ar      1 UNK        -0.1150 
     10 C10        -8.3958   -5.1387   37.5457 C.ar      1 UNK         0.0850 
     11 C11        -7.4551   -3.0857   38.5242 C.ar      1 UNK         0.0850 
     12 C12        -8.2490   -3.7331   37.5513 C.ar      1 UNK         0.0850 
     13 C13        -6.2100   -6.0484   40.5275 C.ar      1 UNK         0.4100 
     14 C14        -5.0953   -7.6208   41.6235 C.ar      1 UNK         0.4175 
     15 C15        -5.0265   -9.1602   39.7013 C.2       1 UNK         0.2453 
     16 C16        -4.3058  -13.5879   35.9502 C.3       1 UNK        -0.0650 
     17 C17        -5.1362  -10.9000   34.9670 C.3       1 UNK        -0.0650 
     18 C18        -9.3421   -7.1013   36.5250 C.3       1 UNK         0.1100 
     19 C19        -6.6546   -1.0285   39.4771 C.3       1 UNK         0.1100 
     20 C20        -8.1758   -2.8380   35.4063 C.3       1 UNK         0.1100 
     21 N21        -5.9643   -5.6198   41.7790 N.2       1 UNK        -0.3633 
     22 N22        -5.2589   -6.6357   42.4701 N.2       1 UNK        -0.3633 
     23 N23        -5.6632   -8.0379   39.3471 N.2       1 UNK        -0.2500 
     24 N24        -5.6679   -7.2651   40.4531 N.pl3     1 UNK        -0.0934 
     25 O25        -9.1900   -5.6903   36.5607 O.3       1 UNK        -0.2850 
     26 O26        -7.3708   -1.7100   38.4582 O.3       1 UNK        -0.2850 
     27 O27        -8.9044   -2.9796   36.6128 O.3       1 UNK        -0.2850 
     28 S28        -4.4247   -9.2277   41.3941 S.3       1 UNK        -0.0028 
     29 H29        -4.2659  -11.7488   40.2415 H         1 UNK         0.1150 
     30 H30        -3.9685  -13.5896   38.6569 H         1 UNK         0.1150 
     31 H31        -7.8411   -6.9712   38.5715 H         1 UNK         0.1150 
     32 H32        -6.1674   -3.4140   40.2521 H         1 UNK         0.1150 
     33 H33        -5.3611   -9.1235   36.9988 H         1 UNK         0.1150 
     34 H34        -5.2229  -13.7781   35.3923 H         1 UNK         0.0600 
     35 H35        -3.5066  -13.3709   35.2413 H         1 UNK         0.0600 
     36 H36        -4.0433  -14.5039   36.4801 H         1 UNK         0.0600 
     37 H37        -4.2436  -11.1323   34.3856 H         1 UNK         0.0600 
     38 H38        -5.9565  -11.5207   34.6059 H         1 UNK         0.0600 
     39 H39        -5.3953   -9.8582   34.7760 H         1 UNK         0.0600 
     40 H40        -9.9785   -7.3725   35.6827 H         1 UNK         0.0300 
     41 H41        -9.8206   -7.4727   37.4321 H         1 UNK         0.0300 
     42 H42        -8.3835   -7.6040   36.3881 H         1 UNK         0.0300 
     43 H43        -6.7260    0.0459   39.3083 H         1 UNK         0.0300 
     44 H44        -5.5968   -1.2940   39.4666 H         1 UNK         0.0300 
     45 H45        -7.0705   -1.2344   40.4645 H         1 UNK         0.0300 
     46 H46        -8.7393   -2.2168   34.7105 H         1 UNK         0.0300 
     47 H47        -8.0024   -3.8040   34.9301 H         1 UNK         0.0300 
     48 H48        -7.2129   -2.3565   35.5830 H         1 UNK         0.0300 
@<TRIPOS>BOND
     1    1    2 ar   
     2    1    7 ar   
     3    1   29 1    
     4    2    8 ar   
     5    2   30 1    
     6    3    6 ar   
     7    3   10 ar   
     8    3   31 1    
     9    4    6 ar   
    10    4   11 ar   
    11    4   32 1    
    12    5    7 ar   
    13    5    9 ar   
    14    5   33 1    
    15    6   13 1    
    16    7   15 1    
    17    8    9 ar   
    18    8   16 1    
    19    9   17 1    
    20   10   12 ar   
    21   10   25 1    
    22   11   12 ar   
    23   11   26 1    
    24   12   27 1    
    25   13   21 ar   
    26   13   24 ar   
    27   14   22 ar   
    28   14   24 ar   
    29   14   28 1    
    30   15   23 2    
    31   15   28 1    
    32   16   34 1    
    33   16   35 1    
    34   16   36 1    
    35   17   37 1    
    36   17   38 1    
    37   17   39 1    
    38   18   25 1    
    39   18   40 1    
    40   18   41 1    
    41   18   42 1    
    42   19   26 1    
    43   19   43 1    
    44   19   44 1    
    45   19   45 1    
    46   20   27 1    
    47   20   46 1    
    48   20   47 1    
    49   20   48 1    
    50   21   22 ar   
    51   23   24 1    
@<TRIPOS>SUBSTRUCTURE
     1 UNK         1 GROUP             0       ****    0 ROOT    
@<TRIPOS>MOLECULE
ZINC04667591_10
46   49    1
SMALL
USER_CHARGES


@<TRIPOS>ATOM
      1 C1         -4.1024  -13.4335   34.6661 C.ar      1 UNK        -0.1150 
      2 C2         -3.7978  -13.6185   36.0273 C.ar      1 UNK        -0.1150 
      3 C3         -4.7003  -12.2330   34.2408 C.ar      1 UNK        -0.1150 
      4 C4         -4.0899  -12.6056   36.9618 C.ar      1 UNK        -0.1150 
      5 C5         -4.9921  -11.2212   35.1762 C.ar      1 UNK        -0.1150 
      6 C6         -6.7734   -3.8899   39.5548 C.ar      1 UNK        -0.1150 
      7 C7         -7.7860   -5.8452   38.5124 C.ar      1 UNK        -0.1150 
      8 C8         -6.9904   -5.2820   39.5317 C.ar      1 UNK         0.0000 
      9 C9         -4.6920  -11.3948   36.5451 C.ar      1 UNK         0.0000 
     10 C10        -7.3337   -3.0543   38.5596 C.ar      1 UNK         0.0850 
     11 C11        -8.3574   -5.0302   37.5060 C.ar      1 UNK         0.0850 
     12 C12        -8.1156   -3.6360   37.5368 C.ar      1 UNK         0.0850 
     13 C13        -6.3898   -6.1161   40.5729 C.ar      1 UNK         0.4100 
     14 C14        -5.3897   -7.7592   41.6751 C.ar      1 UNK         0.4175 
     15 C15        -5.1350   -9.1709   39.6869 C.2       1 UNK         0.2453 
     16 C16        -5.0169  -10.3049   37.4817 C.2       1 UNK        -0.1150 
     17 C17        -4.7822  -10.2898   38.8074 C.2       1 UNK        -0.1150 
     18 C18        -6.4073   -1.0712   39.5545 C.3       1 UNK         0.1100 
     19 C19        -9.4411   -6.9096   36.4619 C.3       1 UNK         0.1100 
     20 C20        -8.0004   -2.8719   35.3333 C.3       1 UNK         0.1100 
     21 N21        -6.2639   -5.7622   41.8643 N.2       1 UNK        -0.3633 
     22 N22        -5.6321   -6.8239   42.5589 N.2       1 UNK        -0.3633 
     23 N23        -5.7411   -8.0348   39.3306 N.2       1 UNK        -0.2500 
     24 N24        -5.8495   -7.3309   40.4778 N.pl3     1 UNK        -0.0934 
     25 O25        -7.1534   -1.6870   38.5157 O.3       1 UNK        -0.2850 
     26 O26        -9.1526   -5.5198   36.4894 O.3       1 UNK        -0.2850 
     27 O27        -8.6646   -2.8155   36.5845 O.3       1 UNK        -0.2850 
     28 S28        -4.6986   -9.3549   41.4149 S.3       1 UNK        -0.0028 
     29 H29        -3.8782  -14.2107   33.9496 H         1 UNK         0.1150 
     30 H30        -3.3393  -14.5398   36.3562 H         1 UNK         0.1150 
     31 H31        -4.9357  -12.0873   33.1965 H         1 UNK         0.1150 
     32 H32        -3.8432  -12.7812   37.9970 H         1 UNK         0.1150 
     33 H33        -5.4500  -10.3051   34.8318 H         1 UNK         0.1150 
     34 H34        -6.1678   -3.4862   40.3521 H         1 UNK         0.1150 
     35 H35        -7.9565   -6.9094   38.5279 H         1 UNK         0.1150 
     36 H36        -5.4916   -9.4388   37.0417 H         1 UNK         0.1150 
     37 H37        -4.3092  -11.1319   39.2876 H         1 UNK         0.1150 
     38 H38        -6.3763    0.0050   39.3849 H         1 UNK         0.0300 
     39 H39        -5.3779   -1.4312   39.5731 H         1 UNK         0.0300 
     40 H40        -6.8680   -1.2380   40.5292 H         1 UNK         0.0300 
     41 H41       -10.0926   -7.1239   35.6149 H         1 UNK         0.0300 
     42 H42        -9.9628   -7.2271   37.3658 H         1 UNK         0.0300 
     43 H43        -8.5342   -7.5032   36.3386 H         1 UNK         0.0300 
     44 H44        -8.4035   -2.1035   34.6739 H         1 UNK         0.0300 
     45 H45        -8.1385   -3.8361   34.8441 H         1 UNK         0.0300 
     46 H46        -6.9311   -2.6868   35.4465 H         1 UNK         0.0300 
@<TRIPOS>BOND
     1    1    2 ar   
     2    1    3 ar   
     3    1   29 1    
     4    2    4 ar   
     5    2   30 1    
     6    3    5 ar   
     7    3   31 1    
     8    4    9 ar   
     9    4   32 1    
    10    5    9 ar   
    11    5   33 1    
    12    6    8 ar   
    13    6   10 ar   
    14    6   34 1    
    15    7    8 ar   
    16    7   11 ar   
    17    7   35 1    
    18    8   13 1    
    19    9   16 1    
    20   10   12 ar   
    21   10   25 1    
    22   11   12 ar   
    23   11   26 1    
    24   12   27 1    
    25   13   21 ar   
    26   13   24 ar   
    27   14   22 ar   
    28   14   24 ar   
    29   14   28 1    
    30   15   17 1    
    31   15   23 2    
    32   15   28 1    
    33   16   17 2    
    34   16   36 1    
    35   17   37 1    
    36   18   25 1    
    37   18   38 1    
    38   18   39 1    
    39   18   40 1    
    40   19   26 1    
    41   19   41 1    
    42   19   42 1    
    43   19   43 1    
    44   20   27 1    
    45   20   44 1    
    46   20   45 1    
    47   20   46 1    
    48   21   22 ar   
    49   23   24 1    
@<TRIPOS>SUBSTRUCTURE
     1 UNK         1 GROUP             0       ****    0 ROOT    
@<TRIPOS>MOLECULE
ZINC04704953_143
51   53    1
SMALL
USER_CHARGES


@<TRIPOS>ATOM
      1 C1         -4.2651  -12.5404   34.6393 C.ar      1 UNK        -0.1150 
      2 C2         -5.5629  -12.0007   34.5504 C.ar      1 UNK        -0.1150 
      3 C3         -3.7133  -12.8411   35.8996 C.ar      1 UNK        -0.1150 
      4 C4         -6.3093  -11.7620   35.7210 C.ar      1 UNK        -0.1150 
      5 C5         -4.4586  -12.6022   37.0704 C.ar      1 UNK        -0.1150 
      6 C6         -8.7414   -6.4990   38.4293 C.ar      1 UNK        -0.1150 
      7 C7         -7.6587   -4.6816   39.6410 C.ar      1 UNK        -0.1150 
      8 C8         -8.0049   -6.0483   39.5473 C.ar      1 UNK         0.0198 
      9 C9         -5.7591  -12.0616   36.9854 C.ar      1 UNK        -0.1150 
     10 C10        -9.1107   -5.6092   37.3929 C.ar      1 UNK         0.0850 
     11 C11        -8.0227   -3.7736   38.6194 C.ar      1 UNK         0.0850 
     12 C12        -8.7388   -4.2522   37.5053 C.ar      1 UNK         0.1500 
     13 C13        -7.6250   -7.0000   40.6192 C.2       1 UNK         0.5789 
     14 C14        -6.8015  -10.4378   40.3848 C.3       1 UNK        -0.1200 
     15 C15        -6.3261   -9.2477   38.1924 C.3       1 UNK        -0.1200 
     16 C16        -6.4044   -9.1439   41.1171 C.3       1 UNK        -0.0500 
     17 C17        -5.9606   -8.0013   39.0184 C.3       1 UNK        -0.0500 
     18 C18        -6.1114  -10.5419   39.0088 C.3       1 UNK        -0.0600 
     19 C19       -10.2237   -7.3440   36.1519 C.3       1 UNK         0.1100 
     20 C20        -7.0433   -1.9008   39.7611 C.3       1 UNK         0.1100 
     21 C21        -6.5594  -11.8075   38.2508 C.3       1 UNK        -0.0050 
     22 N22        -6.7403   -7.9900   40.2672 N.pl3     1 UNK        -0.2625 
     23 O23        -9.0695   -3.3581   36.5322 O.3       1 UNK        -0.5850 
     24 O24        -9.8173   -5.9894   36.2705 O.3       1 UNK        -0.2850 
     25 O25        -7.7222   -2.4263   38.6291 O.3       1 UNK        -0.2850 
     26 S26        -8.3380   -6.8072   42.1190 S.2       1 UNK        -0.4762 
     27 H27        -3.6932  -12.7242   33.7413 H         1 UNK         0.1150 
     28 H28        -5.9860  -11.7700   33.5833 H         1 UNK         0.1150 
     29 H29        -2.7181  -13.2560   35.9684 H         1 UNK         0.1150 
     30 H30        -7.3035  -11.3464   35.6434 H         1 UNK         0.1150 
     31 H31        -4.0285  -12.8351   38.0340 H         1 UNK         0.1150 
     32 H32        -9.0123   -7.5426   38.3906 H         1 UNK         0.1150 
     33 H33        -7.1097   -4.3537   40.5109 H         1 UNK         0.1150 
     34 H34        -6.5399  -11.2997   40.9996 H         1 UNK         0.0600 
     35 H35        -7.8854  -10.4660   40.2622 H         1 UNK         0.0600 
     36 H36        -7.3629   -9.1845   37.8612 H         1 UNK         0.0600 
     37 H37        -5.7179   -9.2705   37.2871 H         1 UNK         0.0600 
     38 H38        -6.8855   -9.1287   42.0943 H         1 UNK         0.0600 
     39 H39        -5.3319   -9.1393   41.3158 H         1 UNK         0.0600 
     40 H40        -4.9005   -8.0336   39.2743 H         1 UNK         0.0600 
     41 H41        -6.0795   -7.1028   38.4135 H         1 UNK         0.0600 
     42 H42        -5.0406  -10.6341   39.1986 H         1 UNK         0.0600 
     43 H43       -10.7737   -7.4724   35.2197 H         1 UNK         0.0300 
     44 H44       -10.8871   -7.6342   36.9678 H         1 UNK         0.0300 
     45 H45        -9.3660   -8.0176   36.1239 H         1 UNK         0.0300 
     46 H46        -6.9047   -0.8274   39.6312 H         1 UNK         0.0300 
     47 H47        -6.0550   -2.3481   39.8768 H         1 UNK         0.0300 
     48 H48        -7.6175   -2.0498   40.6768 H         1 UNK         0.0300 
     49 H49        -7.6207  -11.7460   38.0069 H         1 UNK         0.0600 
     50 H50        -6.4513  -12.6815   38.8947 H         1 UNK         0.0600 
     51 H51        -8.7547   -2.5030   36.7877 H         1 UNK         0.4350 
@<TRIPOS>BOND
     1    1    2 ar   
     2    1    3 ar   
     3    1   27 1    
     4    2    4 ar   
     5    2   28 1    
     6    3    5 ar   
     7    3   29 1    
     8    4    9 ar   
     9    4   30 1    
    10    5    9 ar   
    11    5   31 1    
    12    6    8 ar   
    13    6   10 ar   
    14    6   32 1    
    15    7    8 ar   
    16    7   11 ar   
    17    7   33 1    
    18    8   13 1    
    19    9   21 1    
    20   10   12 ar   
    21   10   24 1    
    22   11   12 ar   
    23   11   25 1    
    24   12   23 1    
    25   13   22 1    
    26   13   26 2    
    27   14   16 1    
    28   14   18 1    
    29   14   34 1    
    30   14   35 1    
    31   15   17 1    
    32   15   18 1    
    33   15   36 1    
    34   15   37 1    
    35   16   22 1    
    36   16   38 1    
    37   16   39 1    
    38   17   22 1    
    39   17   40 1    
    40   17   41 1    
    41   18   21 1    
    42   18   42 1    
    43   19   24 1    
    44   19   43 1    
    45   19   44 1    
    46   19   45 1    
    47   20   25 1    
    48   20   46 1    
    49   20   47 1    
    50   20   48 1    
    51   21   49 1    
    52   21   50 1    
    53   23   51 1    
@<TRIPOS>SUBSTRUCTURE
     1 UNK         1 GROUP             0       ****    0 ROOT    
@<TRIPOS>MOLECULE
ZINC04800851_105
48   50    1
SMALL
USER_CHARGES


@<TRIPOS>ATOM
      1 C1        -11.4972  -22.1059   36.0548 C.ar      1 UNK        -0.2222 
      2 C2        -11.9894  -20.9102   35.4977 C.ar      1 UNK        -0.0888 
      3 C3        -11.2765  -22.2059   37.4439 C.ar      1 UNK        -0.2243 
      4 C4        -12.2632  -19.8115   36.3332 C.ar      1 UNK        -0.3541 
      5 C5        -11.4293  -20.9022   39.7192 C.ar      1 UNK        -0.2567 
      6 C6        -16.4743  -13.9361   38.1714 C.ar      1 UNK        -0.1150 
      7 C7        -14.8184  -12.8508   39.5767 C.ar      1 UNK        -0.1150 
      8 C8        -11.8496  -19.6201   39.9550 C.ar      1 UNK        -0.1072 
      9 C9        -11.5417  -21.1175   38.3073 C.ar      1 UNK         0.1233 
     10 C10       -15.3725  -14.0287   39.0456 C.ar      1 UNK        -0.1150 
     11 C11       -12.0399  -19.9177   37.7193 C.ar      1 UNK         0.2860 
     12 C12       -16.9940  -12.6750   37.7889 C.ar      1 UNK         0.0850 
     13 C13       -15.3163  -11.5827   39.2264 C.ar      1 UNK         0.0850 
     14 C14       -16.3889  -11.4887   38.2914 C.ar      1 UNK         0.0850 
     15 C15       -14.8183  -15.3596   39.4555 C.2       1 UNK         0.6150 
     16 C16       -18.7781  -13.7123   36.5343 C.3       1 UNK         0.1100 
     17 C17       -15.3339   -9.2779   39.9602 C.3       1 UNK         0.1100 
     18 C18       -16.9302  -10.0161   36.4992 C.3       1 UNK         0.1100 
     19 C19       -12.7222  -17.6625   38.6380 C.3       1 UNK         0.0025 
     20 C20       -14.2597  -17.6373   38.6627 C.3       1 UNK         0.0800 
     21 N21       -12.2203  -19.0169   38.7596 N.pl3     1 UNK        -0.2434 
     22 N22       -14.7792  -16.2863   38.4907 N.am      1 UNK        -0.5000 
     23 O23       -14.3761  -15.5486   40.5858 O.2       1 UNK        -0.5000 
     24 O24       -18.0861  -12.5455   36.9532 O.3       1 UNK        -0.2850 
     25 O25       -14.6639  -10.5219   39.8229 O.3       1 UNK        -0.2850 
     26 O26       -16.8412  -10.2481   37.8988 O.3       1 UNK        -0.2850 
     27 H27       -11.2859  -22.9507   35.4139 H         1 UNK         0.1489 
     28 H28       -12.1540  -20.8377   34.4315 H         1 UNK         0.1359 
     29 H29       -10.8977  -23.1271   37.8601 H         1 UNK         0.1699 
     30 H30       -12.6373  -18.8918   35.9125 H         1 UNK         0.1796 
     31 H31       -11.0803  -21.6200   40.4466 H         1 UNK         0.1377 
     32 H32       -16.9204  -14.8501   37.8132 H         1 UNK         0.1150 
     33 H33       -13.9940  -12.9174   40.2732 H         1 UNK         0.1150 
     34 H34       -11.9168  -19.0820   40.8913 H         1 UNK         0.1929 
     35 H35       -19.6354  -13.4208   35.9276 H         1 UNK         0.0300 
     36 H36       -19.1567  -14.2801   37.3853 H         1 UNK         0.0300 
     37 H37       -18.1447  -14.3533   35.9203 H         1 UNK         0.0300 
     38 H38       -16.3715   -9.4038   40.2733 H         1 UNK         0.0300 
     39 H39       -15.2964   -8.7040   39.0339 H         1 UNK         0.0300 
     40 H40       -14.8324   -8.6869   40.7260 H         1 UNK         0.0300 
     41 H41       -16.6962   -8.9715   36.2949 H         1 UNK         0.0300 
     42 H42       -17.9411  -10.1996   36.1355 H         1 UNK         0.0300 
     43 H43       -16.2302  -10.6281   35.9279 H         1 UNK         0.0300 
     44 H44       -12.3398  -17.2305   37.7124 H         1 UNK         0.0600 
     45 H45       -12.3125  -17.0650   39.4542 H         1 UNK         0.0600 
     46 H46       -14.6575  -18.2639   37.8640 H         1 UNK         0.0600 
     47 H47       -14.6285  -18.0591   39.6000 H         1 UNK         0.0600 
     48 H48       -15.1134  -16.0184   37.5792 H         1 UNK         0.3000 
@<TRIPOS>BOND
     1    1    2 ar   
     2    1    3 ar   
     3    1   27 1    
     4    2    4 ar   
     5    2   28 1    
     6    3    9 ar   
     7    3   29 1    
     8    4   11 ar   
     9    4   30 1    
    10    5    8 ar   
    11    5    9 ar   
    12    5   31 1    
    13    6   10 ar   
    14    6   12 ar   
    15    6   32 1    
    16    7   10 ar   
    17    7   13 ar   
    18    7   33 1    
    19    8   21 ar   
    20    8   34 1    
    21    9   11 ar   
    22   10   15 1    
    23   11   21 ar   
    24   12   14 ar   
    25   12   24 1    
    26   13   14 ar   
    27   13   25 1    
    28   14   26 1    
    29   15   22 am   BACKBONE|DICT|INTERRES
    30   15   23 2    
    31   16   24 1    
    32   16   35 1    
    33   16   36 1    
    34   16   37 1    
    35   17   25 1    
    36   17   38 1    
    37   17   39 1    
    38   17   40 1    
    39   18   26 1    
    40   18   41 1    
    41   18   42 1    
    42   18   43 1    
    43   19   20 1    
    44   19   21 1    
    45   19   44 1    
    46   19   45 1    
    47   20   22 1    
    48   20   46 1    
    49   20   47 1    
    50   22   48 1    
@<TRIPOS>SUBSTRUCTURE
     1 UNK         1 GROUP             0       ****    0 ROOT    
@<TRIPOS>MOLECULE
ZINC04810744_97
57   59    1
SMALL
USER_CHARGES


@<TRIPOS>ATOM
      1 C1        -13.1726  -22.2604   42.3504 C.ar      1 UNK        -0.1150 
      2 C2        -13.9200  -21.3984   43.1729 C.ar      1 UNK        -0.1150 
      3 C3        -13.1878  -22.0892   40.9535 C.ar      1 UNK        -0.1150 
      4 C4        -14.6807  -20.3618   42.6009 C.ar      1 UNK        -0.1150 
      5 C5        -18.0291  -16.6983   40.0996 C.ar      1 UNK        -0.1150 
      6 C6        -16.0075  -16.9585   38.7790 C.ar      1 UNK        -0.1150 
      7 C7        -16.7566  -17.2771   39.9323 C.ar      1 UNK        -0.1150 
      8 C8        -13.9529  -21.0578   40.3653 C.ar      1 UNK         0.2100 
      9 C9        -14.6999  -20.1865   41.1963 C.ar      1 UNK         0.0850 
     10 C10       -18.5698  -15.8391   39.1260 C.ar      1 UNK         0.0850 
     11 C11       -16.5249  -16.1101   37.7823 C.ar      1 UNK         0.0850 
     12 C12       -17.8362  -15.5749   37.9359 C.ar      1 UNK         0.0850 
     13 C13       -16.2030  -18.1823   40.9939 C.2       1 UNK         0.6150 
     14 C14       -13.8853  -22.5892   35.3874 C.2       1 UNK         0.5000 
     15 C15       -12.7304  -20.9219   38.2217 C.3       1 UNK         0.0900 
     16 C16       -15.1920  -21.3953   38.2971 C.3       1 UNK         0.0900 
     17 C17       -12.5340  -22.2620   37.4773 C.3       1 UNK        -0.0500 
     18 C18       -14.9050  -22.7520   37.6328 C.3       1 UNK        -0.0500 
     19 C19       -12.6572  -22.3309   34.5172 C.3       1 UNK        -0.1800 
     20 C20       -20.0271  -13.9519   39.0849 C.3       1 UNK         0.1100 
     21 C21       -15.8350  -14.7065   35.9471 C.3       1 UNK         0.1100 
     22 C22       -19.3083  -15.6238   36.1368 C.3       1 UNK         0.1100 
     23 N23       -13.9932  -20.8802   38.9662 N.pl3     1 UNK        -0.6300 
     24 N24       -13.7572  -22.5900   36.7337 N.am      1 UNK        -0.1400 
     25 N25       -15.4095  -19.1564   40.5288 N.am      1 UNK        -0.3850 
     26 O26       -16.5390  -18.0447   42.1683 O.2       1 UNK        -0.5000 
     27 O27       -14.9598  -22.7916   34.8251 O.2       1 UNK        -0.5000 
     28 O28       -19.8194  -15.3249   39.3900 O.3       1 UNK        -0.2850 
     29 O29       -15.6941  -15.9021   36.7005 O.3       1 UNK        -0.2850 
     30 O30       -18.4147  -14.8515   36.9248 O.3       1 UNK        -0.2850 
     31 H31       -12.5889  -23.0557   42.7909 H         1 UNK         0.1150 
     32 H32       -13.9098  -21.5280   44.2457 H         1 UNK         0.1150 
     33 H33       -12.6153  -22.7676   40.3431 H         1 UNK         0.1150 
     34 H34       -15.2350  -19.7136   43.2621 H         1 UNK         0.1150 
     35 H35       -18.6006  -16.9097   40.9928 H         1 UNK         0.1150 
     36 H36       -15.0123  -17.3567   38.6435 H         1 UNK         0.1150 
     37 H37       -11.8853  -20.7288   38.8849 H         1 UNK         0.0600 
     38 H38       -12.7404  -20.1038   37.5000 H         1 UNK         0.0600 
     39 H39       -15.5160  -20.6753   37.5438 H         1 UNK         0.0600 
     40 H40       -16.0190  -21.5000   39.0020 H         1 UNK         0.0600 
     41 H41       -11.6443  -22.2032   36.8521 H         1 UNK         0.0600 
     42 H42       -12.3327  -23.0699   38.1795 H         1 UNK         0.0600 
     43 H43       -14.6774  -23.5058   38.3875 H         1 UNK         0.0600 
     44 H44       -15.7976  -23.1083   37.1155 H         1 UNK         0.0600 
     45 H45       -11.8984  -23.0948   34.6848 H         1 UNK         0.0600 
     46 H46       -12.2349  -21.3483   34.7268 H         1 UNK         0.0600 
     47 H47       -12.9316  -22.3575   33.4624 H         1 UNK         0.0600 
     48 H48       -20.4245  -13.8262   38.0783 H         1 UNK         0.0300 
     49 H49       -19.1153  -13.3605   39.1846 H         1 UNK         0.0300 
     50 H50       -20.7616  -13.5403   39.7765 H         1 UNK         0.0300 
     51 H51       -16.6241  -14.8003   35.2013 H         1 UNK         0.0300 
     52 H52       -14.9064  -14.5128   35.4107 H         1 UNK         0.0300 
     53 H53       -16.0324  -13.8408   36.5812 H         1 UNK         0.0300 
     54 H54       -19.7221  -15.0043   35.3414 H         1 UNK         0.0300 
     55 H55       -20.1401  -16.0082   36.7285 H         1 UNK         0.0300 
     56 H56       -18.7933  -16.4665   35.6731 H         1 UNK         0.0300 
     57 H57       -15.2612  -19.1782   39.5303 H         1 UNK         0.3000 
@<TRIPOS>BOND
     1    1    2 ar   
     2    1    3 ar   
     3    1   31 1    
     4    2    4 ar   
     5    2   32 1    
     6    3    8 ar   
     7    3   33 1    
     8    4    9 ar   
     9    4   34 1    
    10    5    7 ar   
    11    5   10 ar   
    12    5   35 1    
    13    6    7 ar   
    14    6   11 ar   
    15    6   36 1    
    16    7   13 1    
    17    8    9 ar   
    18    8   23 1    
    19    9   25 1    
    20   10   12 ar   
    21   10   28 1    
    22   11   12 ar   
    23   11   29 1    
    24   12   30 1    
    25   13   25 am   BACKBONE|DICT|INTERRES
    26   13   26 2    
    27   14   19 1    
    28   14   24 am   BACKBONE|DICT|INTERRES
    29   14   27 2    
    30   15   17 1    
    31   15   23 1    
    32   15   37 1    
    33   15   38 1    
    34   16   18 1    
    35   16   23 1    
    36   16   39 1    
    37   16   40 1    
    38   17   24 1    
    39   17   41 1    
    40   17   42 1    
    41   18   24 1    
    42   18   43 1    
    43   18   44 1    
    44   19   45 1    
    45   19   46 1    
    46   19   47 1    
    47   20   28 1    
    48   20   48 1    
    49   20   49 1    
    50   20   50 1    
    51   21   29 1    
    52   21   51 1    
    53   21   52 1    
    54   21   53 1    
    55   22   30 1    
    56   22   54 1    
    57   22   55 1    
    58   22   56 1    
    59   25   57 1    
@<TRIPOS>SUBSTRUCTURE
     1 UNK         1 GROUP             0       ****    0 ROOT    
@<TRIPOS>MOLECULE
ZINC04845817_40
46   48    1
SMALL
USER_CHARGES


@<TRIPOS>ATOM
      1 C1         -5.0890  -10.1573   37.1293 C.ar      1 UNK        -0.1150 
      2 C2         -4.3480  -11.5621   38.9772 C.ar      1 UNK        -0.1150 
      3 C3         -4.7981  -11.1951   36.2215 C.ar      1 UNK        -0.1150 
      4 C4         -4.0591  -12.5974   38.0669 C.ar      1 UNK        -0.1150 
      5 C5         -6.7965   -3.8209   39.7267 C.ar      1 UNK        -0.1150 
      6 C6         -7.2566   -5.6188   38.1759 C.ar      1 UNK        -0.1150 
      7 C7         -4.8657  -10.3342   38.5129 C.ar      1 UNK         0.0044 
      8 C8         -6.7837   -5.1969   39.4351 C.ar      1 UNK         0.0000 
      9 C9         -4.2785  -12.4291   36.6854 C.ar      1 UNK         0.0850 
     10 C10        -7.2663   -2.8682   38.8040 C.ar      1 UNK         0.0850 
     11 C11        -7.7254   -4.6906   37.2136 C.ar      1 UNK         0.0850 
     12 C12        -7.7038   -3.3007   37.5179 C.ar      1 UNK         0.0850 
     13 C13        -5.1681   -9.2472   39.4757 C.2       1 UNK         0.4703 
     14 C14        -5.7944   -7.3849   40.3078 C.2       1 UNK         0.1225 
     15 C15        -5.3071   -8.2216   41.3995 C.2       1 UNK         0.5100 
     16 C16        -6.2483   -6.1217   40.4566 C.2       1 UNK        -0.1150 
     17 C17        -4.1676  -13.3529   34.4728 C.3       1 UNK         0.1100 
     18 C18        -8.0235   -0.5718   38.6359 C.3       1 UNK         0.1100 
     19 C19        -8.2681   -6.4676   35.6706 C.3       1 UNK         0.1100 
     20 C20        -7.5392   -2.4564   35.2933 C.3       1 UNK         0.1100 
     21 N21        -5.6614   -8.1245   39.1476 N.2       1 UNK        -0.5122 
     22 O22        -5.2448   -7.9509   42.5980 O.2       1 UNK        -0.4300 
     23 O23        -4.9420   -9.3485   40.8195 O.3       1 UNK        -0.1650 
     24 O24        -3.9664  -13.4953   35.8716 O.3       1 UNK        -0.2850 
     25 O25        -7.2173   -1.5628   39.2546 O.3       1 UNK        -0.2850 
     26 O26        -8.2271   -5.0836   35.9872 O.3       1 UNK        -0.2850 
     27 O27        -8.1152   -2.3686   36.5902 O.3       1 UNK        -0.2850 
     28 H28        -5.4829   -9.2222   36.7564 H         1 UNK         0.1150 
     29 H29        -4.1680  -11.7216   40.0308 H         1 UNK         0.1150 
     30 H30        -4.9821  -11.0180   35.1731 H         1 UNK         0.1150 
     31 H31        -3.6628  -13.5348   38.4297 H         1 UNK         0.1150 
     32 H32        -6.4407   -3.4729   40.6855 H         1 UNK         0.1150 
     33 H33        -7.2738   -6.6730   37.9625 H         1 UNK         0.1150 
     34 H34        -6.2574   -5.7301   41.4652 H         1 UNK         0.1150 
     35 H35        -3.8724  -14.2747   33.9717 H         1 UNK         0.0300 
     36 H36        -3.5592  -12.5456   34.0627 H         1 UNK         0.0300 
     37 H37        -5.2171  -13.1714   34.2370 H         1 UNK         0.0300 
     38 H38        -8.0832    0.2968   39.2912 H         1 UNK         0.0300 
     39 H39        -9.0428   -0.9219   38.4663 H         1 UNK         0.0300 
     40 H40        -7.5866   -0.2358   37.6951 H         1 UNK         0.0300 
     41 H41        -8.6876   -6.5938   34.6727 H         1 UNK         0.0300 
     42 H42        -8.9038   -7.0179   36.3655 H         1 UNK         0.0300 
     43 H43        -7.2692   -6.9063   35.6652 H         1 UNK         0.0300 
     44 H44        -7.4176   -1.4523   34.8879 H         1 UNK         0.0300 
     45 H45        -8.1910   -3.0048   34.6132 H         1 UNK         0.0300 
     46 H46        -6.5553   -2.9289   35.3019 H         1 UNK         0.0300 
@<TRIPOS>BOND
     1    1    3 ar   
     2    1    7 ar   
     3    1   28 1    
     4    2    4 ar   
     5    2    7 ar   
     6    2   29 1    
     7    3    9 ar   
     8    3   30 1    
     9    4    9 ar   
    10    4   31 1    
    11    5    8 ar   
    12    5   10 ar   
    13    5   32 1    
    14    6    8 ar   
    15    6   11 ar   
    16    6   33 1    
    17    7   13 1    
    18    8   16 1    
    19    9   24 1    
    20   10   12 ar   
    21   10   25 1    
    22   11   12 ar   
    23   11   26 1    
    24   12   27 1    
    25   13   21 2    
    26   13   23 1    
    27   14   15 1    
    28   14   16 2    
    29   14   21 1    
    30   15   22 2    
    31   15   23 1    
    32   16   34 1    
    33   17   24 1    
    34   17   35 1    
    35   17   36 1    
    36   17   37 1    
    37   18   25 1    
    38   18   38 1    
    39   18   39 1    
    40   18   40 1    
    41   19   26 1    
    42   19   41 1    
    43   19   42 1    
    44   19   43 1    
    45   20   27 1    
    46   20   44 1    
    47   20   45 1    
    48   20   46 1    
@<TRIPOS>SUBSTRUCTURE
     1 UNK         1 GROUP             0       ****    0 ROOT    
@<TRIPOS>MOLECULE
ZINC04901984_128
42   43    1
SMALL
USER_CHARGES


@<TRIPOS>ATOM
      1 C1         -7.6092  -14.6651   35.1935 C.ar      1 UNK        -0.1150 
      2 C2         -7.2620  -13.3171   35.3964 C.ar      1 UNK        -0.1150 
      3 C3        -11.4979   -9.4413   38.6231 C.ar      1 UNK        -0.1150 
      4 C4        -10.3219   -7.4072   39.2424 C.ar      1 UNK        -0.1150 
      5 C5         -8.6830  -14.7020   37.3795 C.ar      1 UNK        -0.1150 
      6 C6        -10.5398   -8.7874   39.4247 C.ar      1 UNK        -0.1150 
      7 C7         -8.3642  -13.3424   37.5878 C.ar      1 UNK         0.2000 
      8 C8        -12.2058   -8.7371   37.6217 C.ar      1 UNK         0.0850 
      9 C9        -11.0240   -6.6725   38.2546 C.ar      1 UNK         0.0850 
     10 C10       -11.9568   -7.3587   37.4235 C.ar      1 UNK         0.0850 
     11 C11        -8.3156  -15.3592   36.1904 C.ar      1 UNK         0.1800 
     12 C12        -7.6235  -12.6508   36.5849 C.ar      1 UNK         0.1800 
     13 C13        -9.3579  -10.9185   40.2596 C.2       1 UNK        -0.1150 
     14 C14        -9.1625  -11.4643   39.0434 C.2       1 UNK        -0.0970 
     15 C15        -9.7632   -9.5099   40.4752 C.2       1 UNK         0.5850 
     16 C16       -13.4181  -10.7122   36.9605 C.3       1 UNK         0.1100 
     17 C17        -9.9448   -4.6223   38.9411 C.3       1 UNK         0.1100 
     18 C18       -12.1053   -5.7037   35.6774 C.3       1 UNK         0.1100 
     19 N19        -8.7848  -12.7779   38.8055 N.pl3     1 UNK        -0.5717 
     20 O20        -9.4312   -8.9360   41.5112 O.2       1 UNK        -0.4700 
     21 O21       -13.1408   -9.3299   36.7965 O.3       1 UNK        -0.2850 
     22 O22       -10.8492   -5.3121   38.0901 O.3       1 UNK        -0.2850 
     23 O23       -12.6937   -6.7606   36.4201 O.3       1 UNK        -0.2850 
     24 Cl24       -8.7335  -17.0156   35.9562 Cl        1 UNK        -0.1800 
     25 Cl25       -7.0718  -11.0214   36.7698 Cl        1 UNK        -0.1800 
     26 H26        -7.3251  -15.1688   34.2808 H         1 UNK         0.1150 
     27 H27        -6.6998  -12.7891   34.6404 H         1 UNK         0.1150 
     28 H28       -11.6834  -10.4901   38.7934 H         1 UNK         0.1150 
     29 H29        -9.6002   -6.9281   39.8869 H         1 UNK         0.1150 
     30 H30        -9.2331  -15.2532   38.1273 H         1 UNK         0.1150 
     31 H31        -9.1958  -11.5051   41.1510 H         1 UNK         0.1150 
     32 H32        -9.3021  -10.8827   38.1426 H         1 UNK         0.1150 
     33 H33       -14.1674  -11.0161   36.2297 H         1 UNK         0.0300 
     34 H34       -13.8214  -10.9223   37.9521 H         1 UNK         0.0300 
     35 H35       -12.5287  -11.3210   36.7922 H         1 UNK         0.0300 
     36 H36        -9.9469   -3.5636   38.6822 H         1 UNK         0.0300 
     37 H37        -8.9244   -4.9883   38.8194 H         1 UNK         0.0300 
     38 H38       -10.2388   -4.7034   39.9886 H         1 UNK         0.0300 
     39 H39       -12.5707   -5.6593   34.6931 H         1 UNK         0.0300 
     40 H40       -11.0346   -5.8495   35.5270 H         1 UNK         0.0300 
     41 H41       -12.2773   -4.7414   36.1596 H         1 UNK         0.0300 
     42 H42        -8.8647  -13.4259   39.5769 H         1 UNK         0.3537 
@<TRIPOS>BOND
     1    1    2 ar   
     2    1   11 ar   
     3    1   26 1    
     4    2   12 ar   
     5    2   27 1    
     6    3    6 ar   
     7    3    8 ar   
     8    3   28 1    
     9    4    6 ar   
    10    4    9 ar   
    11    4   29 1    
    12    5    7 ar   
    13    5   11 ar   
    14    5   30 1    
    15    6   15 1    
    16    7   12 ar   
    17    7   19 1    
    18    8   10 ar   
    19    8   21 1    
    20    9   10 ar   
    21    9   22 1    
    22   10   23 1    
    23   11   24 1    
    24   12   25 1    
    25   13   14 2    
    26   13   15 1    
    27   13   31 1    
    28   14   19 1    
    29   14   32 1    
    30   15   20 2    
    31   16   21 1    
    32   16   33 1    
    33   16   34 1    
    34   16   35 1    
    35   17   22 1    
    36   17   36 1    
    37   17   37 1    
    38   17   38 1    
    39   18   23 1    
    40   18   39 1    
    41   18   40 1    
    42   18   41 1    
    43   19   42 1    
@<TRIPOS>SUBSTRUCTURE
     1 UNK         1 GROUP             0       ****    0 ROOT    
@<TRIPOS>MOLECULE
ZINC04929816_103
50   52    1
SMALL
USER_CHARGES


@<TRIPOS>ATOM
      1 C1         -4.5915  -11.7285   39.2065 C.ar      1 UNK        -0.1150 
      2 C2         -4.2854  -12.7801   38.3263 C.ar      1 UNK        -0.1150 
      3 C3         -5.0686  -10.3028   37.2930 C.ar      1 UNK        -0.1150 
      4 C4         -6.6791   -3.8633   39.6545 C.ar      1 UNK        -0.1150 
      5 C5         -7.0306   -5.6519   38.0663 C.ar      1 UNK        -0.1150 
      6 C6         -4.9890  -10.4815   38.6910 C.ar      1 UNK         0.0044 
      7 C7         -6.6996   -5.2414   39.3739 C.ar      1 UNK         0.0000 
      8 C8         -4.3689  -12.6206   36.9284 C.ar      1 UNK         0.0850 
      9 C9         -4.7597  -11.3552   36.3915 C.ar      1 UNK         0.0850 
     10 C10        -6.9889   -2.8980   38.6785 C.ar      1 UNK         0.0850 
     11 C11        -7.3534   -4.7133   37.0556 C.ar      1 UNK         0.0850 
     12 C12        -7.3619   -3.3257   37.3700 C.ar      1 UNK         0.0850 
     13 C13        -5.3197   -9.3702   39.6151 C.2       1 UNK         0.4703 
     14 C14        -5.9231   -7.4655   40.3657 C.2       1 UNK         0.1225 
     15 C15        -5.5959   -8.3135   41.5076 C.2       1 UNK         0.5100 
     16 C16        -6.3241   -6.1787   40.4548 C.2       1 UNK        -0.1150 
     17 C17        -4.2550  -13.8201   34.8141 C.3       1 UNK         0.1100 
     18 C18        -5.1793   -9.9059   34.4989 C.3       1 UNK         0.1100 
     19 C19        -6.8579   -0.5214   38.1992 C.3       1 UNK         0.1100 
     20 C20        -7.5636   -6.4662   35.4067 C.3       1 UNK         0.1100 
     21 C21        -8.9321   -2.5999   35.7287 C.3       1 UNK         0.1100 
     22 N22        -5.7129   -8.2263   39.2318 N.2       1 UNK        -0.5122 
     23 O23        -5.6416   -8.0312   42.7041 O.2       1 UNK        -0.4300 
     24 O24        -5.2358   -9.4668   40.9755 O.3       1 UNK        -0.1650 
     25 O25        -4.0382  -13.7567   36.2147 O.3       1 UNK        -0.2850 
     26 O26        -4.8208  -11.1771   35.0232 O.3       1 UNK        -0.2850 
     27 O27        -6.9165   -1.5927   39.1277 O.3       1 UNK        -0.2850 
     28 O28        -7.6450   -5.0925   35.7588 O.3       1 UNK        -0.2850 
     29 O29        -7.7059   -2.3918   36.4172 O.3       1 UNK        -0.2850 
     30 H30        -4.5196  -11.8912   40.2727 H         1 UNK         0.1150 
     31 H31        -3.9828  -13.7364   38.7276 H         1 UNK         0.1150 
     32 H32        -5.3700   -9.3329   36.9293 H         1 UNK         0.1150 
     33 H33        -6.4086   -3.5222   40.6432 H         1 UNK         0.1150 
     34 H34        -7.0475   -6.7042   37.8462 H         1 UNK         0.1150 
     35 H35        -6.4169   -5.7729   41.4536 H         1 UNK         0.1150 
     36 H36        -4.0584  -14.8356   34.4710 H         1 UNK         0.0300 
     37 H37        -3.5749  -13.1603   34.2744 H         1 UNK         0.0300 
     38 H38        -5.2879  -13.5849   34.5541 H         1 UNK         0.0300 
     39 H39        -5.1584   -9.9497   33.4100 H         1 UNK         0.0300 
     40 H40        -4.4760   -9.1314   34.8083 H         1 UNK         0.0300 
     41 H41        -6.1899   -9.6215   34.7956 H         1 UNK         0.0300 
     42 H42        -6.5605    0.3865   38.7236 H         1 UNK         0.0300 
     43 H43        -7.8333   -0.3301   37.7514 H         1 UNK         0.0300 
     44 H44        -6.1196   -0.7014   37.4165 H         1 UNK         0.0300 
     45 H45        -7.7842   -6.5776   34.3452 H         1 UNK         0.0300 
     46 H46        -8.2917   -7.0633   35.9571 H         1 UNK         0.0300 
     47 H47        -6.5626   -6.8652   35.5772 H         1 UNK         0.0300 
     48 H48        -9.3893   -1.6341   35.5147 H         1 UNK         0.0300 
     49 H49        -9.6480   -3.1811   36.3125 H         1 UNK         0.0300 
     50 H50        -8.7641   -3.0985   34.7742 H         1 UNK         0.0300 
@<TRIPOS>BOND
     1    1    2 ar   
     2    1    6 ar   
     3    1   30 1    
     4    2    8 ar   
     5    2   31 1    
     6    3    6 ar   
     7    3    9 ar   
     8    3   32 1    
     9    4    7 ar   
    10    4   10 ar   
    11    4   33 1    
    12    5    7 ar   
    13    5   11 ar   
    14    5   34 1    
    15    6   13 1    
    16    7   16 1    
    17    8    9 ar   
    18    8   25 1    
    19    9   26 1    
    20   10   12 ar   
    21   10   27 1    
    22   11   12 ar   
    23   11   28 1    
    24   12   29 1    
    25   13   22 2    
    26   13   24 1    
    27   14   15 1    
    28   14   16 2    
    29   14   22 1    
    30   15   23 2    
    31   15   24 1    
    32   16   35 1    
    33   17   25 1    
    34   17   36 1    
    35   17   37 1    
    36   17   38 1    
    37   18   26 1    
    38   18   39 1    
    39   18   40 1    
    40   18   41 1    
    41   19   27 1    
    42   19   42 1    
    43   19   43 1    
    44   19   44 1    
    45   20   28 1    
    46   20   45 1    
    47   20   46 1    
    48   20   47 1    
    49   21   29 1    
    50   21   48 1    
    51   21   49 1    
    52   21   50 1    
@<TRIPOS>SUBSTRUCTURE
     1 UNK         1 GROUP             0       ****    0 ROOT    
@<TRIPOS>MOLECULE
ZINC05006834_187
41   42    1
SMALL
USER_CHARGES


@<TRIPOS>ATOM
      1 C1         -9.8847   -7.1165   39.3628 C.ar      1 UNK        -0.1150 
      2 C2         -7.3704  -12.9465   35.3971 C.ar      1 UNK        -0.1150 
      3 C3         -6.5858  -14.8775   36.6562 C.ar      1 UNK        -0.1150 
      4 C4         -7.7253  -12.3060   36.6000 C.ar      1 UNK        -0.1150 
      5 C5         -6.9424  -14.2366   37.8584 C.ar      1 UNK        -0.1150 
      6 C6        -10.3076   -6.3650   38.2512 C.ar      1 UNK        -0.1150 
      7 C7        -10.5652   -9.1594   38.2357 C.ar      1 UNK        -0.1150 
      8 C8         -9.9979   -8.5220   39.3632 C.ar      1 UNK        -0.1150 
      9 C9         -6.7984  -14.2343   35.4211 C.ar      1 UNK        -0.1150 
     10 C10        -7.5112  -12.9465   37.8427 C.ar      1 UNK         0.2000 
     11 C11       -10.8565   -7.0062   37.1135 C.ar      1 UNK         0.0850 
     12 C12       -10.9867   -8.4139   37.1069 C.ar      1 UNK         0.0850 
     13 C13        -8.9914  -10.6611   40.3844 C.2       1 UNK        -0.1150 
     14 C14        -8.3608  -11.0801   39.2700 C.2       1 UNK        -0.0970 
     15 C15        -9.5246   -9.2900   40.5559 C.2       1 UNK         0.5850 
     16 C16        -6.4124  -14.9287   34.1314 C.3       1 UNK        -0.0650 
     17 C17       -11.1744   -4.9166   35.9654 C.3       1 UNK         0.1100 
     18 C18       -11.6464  -10.4019   35.9191 C.3       1 UNK         0.1100 
     19 N19        -7.8564  -12.3569   39.0672 N.pl3     1 UNK        -0.5717 
     20 O20        -9.5498   -8.7849   41.6773 O.2       1 UNK        -0.4700 
     21 O21       -11.2832   -6.3315   35.9882 O.3       1 UNK        -0.2850 
     22 O22       -11.5289   -8.9883   35.9752 O.3       1 UNK        -0.2850 
     23 H23        -9.4665   -6.6077   40.2208 H         1 UNK         0.1150 
     24 H24        -7.5420  -12.4408   34.4580 H         1 UNK         0.1150 
     25 H25        -6.1477  -15.8646   36.6866 H         1 UNK         0.1150 
     26 H26        -8.1677  -11.3241   36.5416 H         1 UNK         0.1150 
     27 H27        -6.7707  -14.7467   38.7944 H         1 UNK         0.1150 
     28 H28       -10.1968   -5.2930   38.2970 H         1 UNK         0.1150 
     29 H29       -10.6791  -10.2318   38.2536 H         1 UNK         0.1150 
     30 H30        -9.1199  -11.3290   41.2224 H         1 UNK         0.1150 
     31 H31        -8.1963  -10.4040   38.4436 H         1 UNK         0.1150 
     32 H32        -5.3397  -15.1234   34.1125 H         1 UNK         0.0600 
     33 H33        -6.9366  -15.8805   34.0418 H         1 UNK         0.0600 
     34 H34        -6.6619  -14.3215   33.2608 H         1 UNK         0.0600 
     35 H35       -11.5559   -4.5432   35.0152 H         1 UNK         0.0300 
     36 H36       -10.1358   -4.5947   36.0527 H         1 UNK         0.0300 
     37 H37       -11.7650   -4.4581   36.7597 H         1 UNK         0.0300 
     38 H38       -12.0694  -10.6884   34.9564 H         1 UNK         0.0300 
     39 H39       -12.3132  -10.7779   36.6959 H         1 UNK         0.0300 
     40 H40       -10.6741  -10.8884   36.0084 H         1 UNK         0.0300 
     41 H41        -7.7841  -12.9654   39.8706 H         1 UNK         0.3537 
@<TRIPOS>BOND
     1    1    6 ar   
     2    1    8 ar   
     3    1   23 1    
     4    2    4 ar   
     5    2    9 ar   
     6    2   24 1    
     7    3    5 ar   
     8    3    9 ar   
     9    3   25 1    
    10    4   10 ar   
    11    4   26 1    
    12    5   10 ar   
    13    5   27 1    
    14    6   11 ar   
    15    6   28 1    
    16    7    8 ar   
    17    7   12 ar   
    18    7   29 1    
    19    8   15 1    
    20    9   16 1    
    21   10   19 1    
    22   11   12 ar   
    23   11   21 1    
    24   12   22 1    
    25   13   14 2    
    26   13   15 1    
    27   13   30 1    
    28   14   19 1    
    29   14   31 1    
    30   15   20 2    
    31   16   32 1    
    32   16   33 1    
    33   16   34 1    
    34   17   21 1    
    35   17   35 1    
    36   17   36 1    
    37   17   37 1    
    38   18   22 1    
    39   18   38 1    
    40   18   39 1    
    41   18   40 1    
    42   19   41 1    
@<TRIPOS>SUBSTRUCTURE
     1 UNK         1 GROUP             0       ****    0 ROOT    
@<TRIPOS>MOLECULE
ZINC05006836_264
41   42    1
SMALL
USER_CHARGES


@<TRIPOS>ATOM
      1 C1         -9.0890  -14.2123   35.1101 C.ar      1 UNK        -0.1150 
      2 C2        -10.3960   -8.0231   39.1524 C.ar      1 UNK        -0.1150 
      3 C3         -8.6371  -15.5450   35.1063 C.ar      1 UNK        -0.1150 
      4 C4         -9.1491  -13.4876   36.3157 C.ar      1 UNK        -0.1150 
      5 C5        -10.9915   -7.2896   38.1099 C.ar      1 UNK        -0.1150 
      6 C6        -11.4005  -10.0602   38.2882 C.ar      1 UNK        -0.1150 
      7 C7         -8.3065  -15.4290   37.5197 C.ar      1 UNK        -0.1150 
      8 C8        -10.5846   -9.4173   39.2478 C.ar      1 UNK        -0.1150 
      9 C9         -8.2451  -16.1574   36.3136 C.ar      1 UNK        -0.1150 
     10 C10        -8.7549  -14.0915   37.5324 C.ar      1 UNK         0.2000 
     11 C11       -11.7925   -7.9379   37.1379 C.ar      1 UNK         0.0850 
     12 C12       -11.9972   -9.3339   37.2278 C.ar      1 UNK         0.0850 
     13 C13        -9.5332  -11.5807   40.1718 C.2       1 UNK        -0.1150 
     14 C14        -9.1692  -12.0983   38.9823 C.2       1 UNK        -0.0970 
     15 C15        -9.9269  -10.1657   40.3635 C.2       1 UNK         0.5850 
     16 C16        -7.7596  -17.5927   36.3226 C.3       1 UNK        -0.0650 
     17 C17       -12.2281   -5.8764   35.9780 C.3       1 UNK         0.1100 
     18 C18       -12.9771  -11.3222   36.2875 C.3       1 UNK         0.1100 
     19 N19        -8.8058  -13.4194   38.7619 N.pl3     1 UNK        -0.5717 
     20 O20        -9.6879   -9.6106   41.4349 O.2       1 UNK        -0.4700 
     21 O21       -12.4000   -7.2809   36.0876 O.3       1 UNK        -0.2850 
     22 O22       -12.7849   -9.9160   36.2557 O.3       1 UNK        -0.2850 
     23 H23        -9.3923  -13.7428   34.1857 H         1 UNK         0.1150 
     24 H24        -9.7863   -7.5093   39.8831 H         1 UNK         0.1150 
     25 H25        -8.5952  -16.0911   34.1744 H         1 UNK         0.1150 
     26 H26        -9.5082  -12.4713   36.2812 H         1 UNK         0.1150 
     27 H27       -10.8151   -6.2260   38.0785 H         1 UNK         0.1150 
     28 H28       -11.5693  -11.1211   38.3833 H         1 UNK         0.1150 
     29 H29        -8.0045  -15.9063   38.4403 H         1 UNK         0.1150 
     30 H30        -9.5359  -12.1983   41.0569 H         1 UNK         0.1150 
     31 H31        -9.1275  -11.4750   38.1009 H         1 UNK         0.1150 
     32 H32        -6.7533  -17.6505   36.7386 H         1 UNK         0.0600 
     33 H33        -8.4194  -18.2116   36.9311 H         1 UNK         0.0600 
     34 H34        -7.7345  -18.0124   35.3165 H         1 UNK         0.0600 
     35 H35       -12.7722   -5.5154   35.1054 H         1 UNK         0.0300 
     36 H36       -11.1782   -5.6129   35.8436 H         1 UNK         0.0300 
     37 H37       -12.6247   -5.3565   36.8513 H         1 UNK         0.0300 
     38 H38       -13.5961  -11.6183   35.4408 H         1 UNK         0.0300 
     39 H39       -13.4926  -11.6336   37.1968 H         1 UNK         0.0300 
     40 H40       -12.0301  -11.8573   36.2056 H         1 UNK         0.0300 
     41 H41        -8.6242  -13.9963   39.5714 H         1 UNK         0.3537 
@<TRIPOS>BOND
     1    1    3 ar   
     2    1    4 ar   
     3    1   23 1    
     4    2    5 ar   
     5    2    8 ar   
     6    2   24 1    
     7    3    9 ar   
     8    3   25 1    
     9    4   10 ar   
    10    4   26 1    
    11    5   11 ar   
    12    5   27 1    
    13    6    8 ar   
    14    6   12 ar   
    15    6   28 1    
    16    7    9 ar   
    17    7   10 ar   
    18    7   29 1    
    19    8   15 1    
    20    9   16 1    
    21   10   19 1    
    22   11   12 ar   
    23   11   21 1    
    24   12   22 1    
    25   13   14 2    
    26   13   15 1    
    27   13   30 1    
    28   14   19 1    
    29   14   31 1    
    30   15   20 2    
    31   16   32 1    
    32   16   33 1    
    33   16   34 1    
    34   17   21 1    
    35   17   35 1    
    36   17   36 1    
    37   17   37 1    
    38   18   22 1    
    39   18   38 1    
    40   18   39 1    
    41   18   40 1    
    42   19   41 1    
@<TRIPOS>SUBSTRUCTURE
     1 UNK         1 GROUP             0       ****    0 ROOT    
@<TRIPOS>MOLECULE
ZINC05019856_96
56   58    1
SMALL
USER_CHARGES


@<TRIPOS>ATOM
      1 C1         -7.6743   -4.1580   39.8141 C.ar      1 UNK        -0.1150 
      2 C2         -7.7949   -6.0821   38.3322 C.ar      1 UNK        -0.1150 
      3 C3         -7.3588   -5.5014   39.5382 C.ar      1 UNK         0.0000 
      4 C4         -8.4202   -3.3764   38.8970 C.ar      1 UNK         0.0850 
      5 C5         -8.5332   -5.3253   37.3943 C.ar      1 UNK         0.0850 
      6 C6         -8.8354   -3.9701   37.6684 C.ar      1 UNK         0.0850 
      7 C7         -6.5942   -6.2860   40.5033 C.2       1 UNK         0.5614 
      8 C8         -5.6988   -7.9999   41.3399 C.2       1 UNK         0.7139 
      9 C9         -5.0024   -9.6775   38.6778 C.2       1 UNK         0.5000 
     10 C10        -4.7852  -11.7302   35.1630 C.3       1 UNK        -0.1200 
     11 C11        -6.3379  -11.0419   37.0394 C.3       1 UNK        -0.0500 
     12 C12        -4.7002   -9.4339   36.2328 C.3       1 UNK        -0.0500 
     13 C13        -5.6168  -12.2292   36.3654 C.3       1 UNK        -0.0600 
     14 C14        -3.8818  -10.5276   35.5163 C.3       1 UNK        -0.0600 
     15 C15        -4.7675  -13.0439   37.3577 C.3       1 UNK        -0.1800 
     16 C16        -3.1708   -9.9755   34.2733 C.3       1 UNK        -0.1800 
     17 C17        -8.3359   -1.4689   40.3795 C.3       1 UNK         0.1100 
     18 C18        -8.6725   -7.1864   35.8680 C.3       1 UNK         0.1100 
     19 C19        -9.3485   -1.9283   36.4903 C.3       1 UNK         0.1100 
     20 C20        -5.7495  -10.3189   39.8608 C.3       1 UNK         0.0475 
     21 N21        -5.9206   -5.8622   41.5771 N.2       1 UNK        -0.3751 
     22 N22        -5.3373   -6.9842   42.1250 N.2       1 UNK        -0.3751 
     23 N23        -5.3562  -10.0129   37.4130 N.am      1 UNK        -0.1400 
     24 O24        -4.1168   -8.8544   38.9096 O.2       1 UNK        -0.5000 
     25 O25        -6.5332   -7.6324   40.3343 O.3       1 UNK        -0.3726 
     26 O26        -8.7782   -2.0706   39.1707 O.3       1 UNK        -0.2850 
     27 O27        -8.9775   -5.8382   36.1915 O.3       1 UNK        -0.2850 
     28 O28        -9.5618   -3.3174   36.6918 O.3       1 UNK        -0.2850 
     29 S29        -5.2820   -9.7050   41.5161 S.3       1 UNK        -0.3200 
     30 H30        -7.3346   -3.7510   40.7543 H         1 UNK         0.1150 
     31 H31        -7.5436   -7.1124   38.1373 H         1 UNK         0.1150 
     32 H32        -4.1879  -12.5448   34.7511 H         1 UNK         0.0600 
     33 H33        -5.4704  -11.4331   34.3676 H         1 UNK         0.0600 
     34 H34        -7.0516  -10.6026   36.3406 H         1 UNK         0.0600 
     35 H35        -6.9421  -11.4019   37.8704 H         1 UNK         0.0600 
     36 H36        -4.0515   -8.5937   36.4881 H         1 UNK         0.0600 
     37 H37        -5.4578   -9.0245   35.5636 H         1 UNK         0.0600 
     38 H38        -6.3806  -12.9061   35.9785 H         1 UNK         0.0600 
     39 H39        -3.1078  -10.8711   36.2048 H         1 UNK         0.0600 
     40 H40        -5.3770  -13.4253   38.1772 H         1 UNK         0.0600 
     41 H41        -3.9606  -12.4531   37.7917 H         1 UNK         0.0600 
     42 H42        -4.3121  -13.9046   36.8667 H         1 UNK         0.0600 
     43 H43        -2.5040   -9.1533   34.5358 H         1 UNK         0.0600 
     44 H44        -3.8835   -9.6028   33.5369 H         1 UNK         0.0600 
     45 H45        -2.5663  -10.7448   33.7918 H         1 UNK         0.0600 
     46 H46        -8.6872   -0.4377   40.4153 H         1 UNK         0.0300 
     47 H47        -7.2469   -1.4460   40.4398 H         1 UNK         0.0300 
     48 H48        -8.7386   -1.9829   41.2532 H         1 UNK         0.0300 
     49 H49        -9.0893   -7.4225   34.8891 H         1 UNK         0.0300 
     50 H50        -9.1113   -7.8787   36.5877 H         1 UNK         0.0300 
     51 H51        -7.5953   -7.3515   35.8155 H         1 UNK         0.0300 
     52 H52        -9.6120   -1.6734   35.4642 H         1 UNK         0.0300 
     53 H53        -8.3061   -1.6430   36.6403 H         1 UNK         0.0300 
     54 H54        -9.9869   -1.3341   37.1447 H         1 UNK         0.0300 
     55 H55        -5.5691  -11.3931   39.8441 H         1 UNK         0.0600 
     56 H56        -6.8216  -10.1665   39.7400 H         1 UNK         0.0600 
@<TRIPOS>BOND
     1    1    3 ar   
     2    1    4 ar   
     3    1   30 1    
     4    2    3 ar   
     5    2    5 ar   
     6    2   31 1    
     7    3    7 1    
     8    4    6 ar   
     9    4   26 1    
    10    5    6 ar   
    11    5   27 1    
    12    6   28 1    
    13    7   21 2    
    14    7   25 1    
    15    8   22 2    
    16    8   25 1    
    17    8   29 1    
    18    9   20 1    
    19    9   23 am   BACKBONE|DICT|INTERRES
    20    9   24 2    
    21   10   13 1    
    22   10   14 1    
    23   10   32 1    
    24   10   33 1    
    25   11   13 1    
    26   11   23 1    
    27   11   34 1    
    28   11   35 1    
    29   12   14 1    
    30   12   23 1    
    31   12   36 1    
    32   12   37 1    
    33   13   15 1    
    34   13   38 1    
    35   14   16 1    
    36   14   39 1    
    37   15   40 1    
    38   15   41 1    
    39   15   42 1    
    40   16   43 1    
    41   16   44 1    
    42   16   45 1    
    43   17   26 1    
    44   17   46 1    
    45   17   47 1    
    46   17   48 1    
    47   18   27 1    
    48   18   49 1    
    49   18   50 1    
    50   18   51 1    
    51   19   28 1    
    52   19   52 1    
    53   19   53 1    
    54   19   54 1    
    55   20   29 1    
    56   20   55 1    
    57   20   56 1    
    58   21   22 1    
@<TRIPOS>SUBSTRUCTURE
     1 UNK         1 GROUP             0       ****    0 ROOT    
@<TRIPOS>MOLECULE
ZINC05025230_7
44   48    1
SMALL
USER_CHARGES


@<TRIPOS>ATOM
      1 C1         -6.6911   -3.7487   39.7205 C.ar      1 UNK        -0.1150 
      2 C2         -4.2813   -8.7644   36.6410 C.ar      1 UNK        -0.1150 
      3 C3         -4.0085   -9.2896   35.3571 C.ar      1 UNK        -0.1150 
      4 C4         -7.2126   -2.8926   38.7364 C.ar      1 UNK        -0.1150 
      5 C5         -7.4272   -5.6595   38.4181 C.ar      1 UNK        -0.1150 
      6 C6         -4.7407  -11.0188   37.5071 C.ar      1 UNK        -0.1150 
      7 C7         -6.7921   -5.1438   39.5674 C.ar      1 UNK         0.0000 
      8 C8         -4.6412   -9.6192   37.7227 C.ar      1 UNK         0.0044 
      9 C9         -4.1073  -10.6779   35.1844 C.ar      1 UNK         0.0850 
     10 C10        -4.4619  -11.5120   36.2231 C.ar      1 UNK         0.0850 
     11 C11        -7.8427   -3.3970   37.5813 C.ar      1 UNK         0.0850 
     12 C12        -7.9452   -4.8108   37.4048 C.ar      1 UNK         0.0850 
     13 C13        -6.2303   -6.0296   40.5915 C.ar      1 UNK         0.4100 
     14 C14        -5.2516   -7.5972   41.6062 C.ar      1 UNK         0.5625 
     15 C15        -4.9393   -9.0453   39.0640 C.2       1 UNK         0.3492 
     16 C16        -4.8163   -9.9080   40.3263 C.3       1 UNK         0.0836 
     17 C17        -4.1277  -12.7480   34.4292 C.3       1 UNK         0.2000 
     18 C18        -9.1381   -2.7564   35.6251 C.3       1 UNK         0.1100 
     19 C19        -8.5201   -6.7265   36.0442 C.3       1 UNK         0.1100 
     20 N20        -6.2819   -5.7321   41.8978 N.2       1 UNK        -0.3633 
     21 N21        -5.6416   -6.7592   42.5618 N.2       1 UNK        -0.3633 
     22 N22        -5.3175   -7.8280   39.1437 N.2       1 UNK        -0.3897 
     23 N23        -5.5953   -7.2040   40.3664 N.pl3     1 UNK        -0.0934 
     24 O24        -3.8978  -11.4115   34.0631 O.3       1 UNK        -0.2850 
     25 O25        -4.4877  -12.7963   35.7868 O.3       1 UNK        -0.2850 
     26 O26        -8.2943   -2.4201   36.7144 O.3       1 UNK        -0.2850 
     27 O27        -8.5283   -5.3223   36.2618 O.3       1 UNK        -0.2850 
     28 S28        -4.3461   -9.0737   41.8725 S.3       1 UNK        -0.3200 
     29 H29        -6.2115   -3.3327   40.5956 H         1 UNK         0.1150 
     30 H30        -4.2082   -7.6955   36.7892 H         1 UNK         0.1150 
     31 H31        -3.7330   -8.6469   34.5338 H         1 UNK         0.1150 
     32 H32        -7.1303   -1.8235   38.8671 H         1 UNK         0.1150 
     33 H33        -7.5067   -6.7304   38.3346 H         1 UNK         0.1150 
     34 H34        -5.0287  -11.7072   38.2873 H         1 UNK         0.1150 
     35 H35        -5.7750  -10.3997   40.4918 H         1 UNK         0.0600 
     36 H36        -4.0831  -10.6964   40.1597 H         1 UNK         0.0600 
     37 H37        -4.9327  -13.1617   33.8206 H         1 UNK         0.1000 
     38 H38        -3.2200  -13.3317   34.2695 H         1 UNK         0.1000 
     39 H39        -9.5078   -1.8392   35.1675 H         1 UNK         0.0300 
     40 H40       -10.0077   -3.3303   35.9482 H         1 UNK         0.0300 
     41 H41        -8.5946   -3.3050   34.8551 H         1 UNK         0.0300 
     42 H42        -8.9572   -6.9400   35.0689 H         1 UNK         0.0300 
     43 H43        -9.1177   -7.2486   36.7924 H         1 UNK         0.0300 
     44 H44        -7.5054   -7.1277   36.0431 H         1 UNK         0.0300 
@<TRIPOS>BOND
     1    1    4 ar   
     2    1    7 ar   
     3    1   29 1    
     4    2    3 ar   
     5    2    8 ar   
     6    2   30 1    
     7    3    9 ar   
     8    3   31 1    
     9    4   11 ar   
    10    4   32 1    
    11    5    7 ar   
    12    5   12 ar   
    13    5   33 1    
    14    6    8 ar   
    15    6   10 ar   
    16    6   34 1    
    17    7   13 1    
    18    8   15 1    
    19    9   10 ar   
    20    9   24 1    
    21   10   25 1    
    22   11   12 ar   
    23   11   26 1    
    24   12   27 1    
    25   13   20 ar   
    26   13   23 ar   
    27   14   21 ar   
    28   14   23 ar   
    29   14   28 1    
    30   15   16 1    
    31   15   22 2    
    32   16   28 1    
    33   16   35 1    
    34   16   36 1    
    35   17   24 1    
    36   17   25 1    
    37   17   37 1    
    38   17   38 1    
    39   18   26 1    
    40   18   39 1    
    41   18   40 1    
    42   18   41 1    
    43   19   27 1    
    44   19   42 1    
    45   19   43 1    
    46   19   44 1    
    47   20   21 ar   
    48   22   23 1    
@<TRIPOS>SUBSTRUCTURE
     1 UNK         1 GROUP             0       ****    0 ROOT    
@<TRIPOS>MOLECULE
ZINC05025694_7
45   48    1
SMALL
USER_CHARGES


@<TRIPOS>ATOM
      1 C1         -4.9625  -11.1699   37.3495 C.ar      1 UNK        -0.1150 
      2 C2         -4.4820   -8.9221   36.5314 C.ar      1 UNK        -0.1150 
      3 C3         -4.7273  -11.6857   36.0592 C.ar      1 UNK        -0.1150 
      4 C4         -4.2472   -9.4415   35.2430 C.ar      1 UNK        -0.1150 
      5 C5         -6.8242   -3.9463   39.7491 C.ar      1 UNK        -0.1150 
      6 C6         -7.6223   -5.8409   38.4546 C.ar      1 UNK        -0.1150 
      7 C7         -6.9368   -5.3388   39.5784 C.ar      1 UNK         0.0000 
      8 C8         -4.8358   -9.7826   37.5990 C.ar      1 UNK         0.0044 
      9 C9         -7.3709   -3.0541   38.7977 C.ar      1 UNK         0.0850 
     10 C10        -8.1766   -4.9732   37.4819 C.ar      1 UNK         0.0850 
     11 C11        -8.0292   -3.5663   37.6547 C.ar      1 UNK         0.0850 
     12 C12        -4.3691  -10.8231   35.0065 C.ar      1 UNK         0.1800 
     13 C13        -6.3408   -6.2377   40.5697 C.ar      1 UNK         0.4100 
     14 C14        -5.3263   -7.8178   41.5279 C.ar      1 UNK         0.5625 
     15 C15        -5.0980   -9.2281   38.9568 C.2       1 UNK         0.3492 
     16 C16        -4.9369  -10.1087   40.2017 C.3       1 UNK         0.0836 
     17 C17        -6.6707   -1.1300   40.0655 C.3       1 UNK         0.1100 
     18 C18        -8.9838   -6.8494   36.1896 C.3       1 UNK         0.1100 
     19 C19        -8.4947   -2.9084   35.3869 C.3       1 UNK         0.1100 
     20 N20        -6.3485   -5.9587   41.8807 N.2       1 UNK        -0.3633 
     21 N21        -5.6845   -6.9937   42.5078 N.2       1 UNK        -0.3633 
     22 N22        -5.4752   -8.0127   39.0653 N.2       1 UNK        -0.3897 
     23 N23        -5.7127   -7.4074   40.3062 N.pl3     1 UNK        -0.0934 
     24 O24        -7.2845   -1.6806   38.9096 O.3       1 UNK        -0.2850 
     25 O25        -8.8763   -5.4473   36.3890 O.3       1 UNK        -0.2850 
     26 O26        -8.5242   -2.6228   36.7770 O.3       1 UNK        -0.2850 
     27 S27        -4.4098   -9.2961   41.7410 S.3       1 UNK        -0.3200 
     28 Cl28       -4.0857  -11.4581   33.4291 Cl        1 UNK        -0.1800 
     29 H29        -5.2496  -11.8558   38.1330 H         1 UNK         0.1150 
     30 H30        -4.3844   -7.8570   36.6918 H         1 UNK         0.1150 
     31 H31        -4.8246  -12.7455   35.8719 H         1 UNK         0.1150 
     32 H32        -3.9743   -8.7799   34.4336 H         1 UNK         0.1150 
     33 H33        -6.3051   -3.5850   40.6238 H         1 UNK         0.1150 
     34 H34        -7.7223   -6.9099   38.3656 H         1 UNK         0.1150 
     35 H35        -5.8923  -10.5970   40.3936 H         1 UNK         0.0600 
     36 H36        -4.2149  -10.8990   39.9985 H         1 UNK         0.0600 
     37 H37        -6.7106   -0.0423   40.0089 H         1 UNK         0.0300 
     38 H38        -5.6206   -1.4171   40.1351 H         1 UNK         0.0300 
     39 H39        -7.1910   -1.4314   40.9758 H         1 UNK         0.0300 
     40 H40        -9.5319   -7.0379   35.2666 H         1 UNK         0.0300 
     41 H41        -9.5343   -7.3277   37.0009 H         1 UNK         0.0300 
     42 H42        -8.0027   -7.3162   36.0900 H         1 UNK         0.0300 
     43 H43        -8.4460   -1.9710   34.8334 H         1 UNK         0.0300 
     44 H44        -9.4021   -3.4240   35.0716 H         1 UNK         0.0300 
     45 H45        -7.6231   -3.5013   35.1047 H         1 UNK         0.0300 
@<TRIPOS>BOND
     1    1    3 ar   
     2    1    8 ar   
     3    1   29 1    
     4    2    4 ar   
     5    2    8 ar   
     6    2   30 1    
     7    3   12 ar   
     8    3   31 1    
     9    4   12 ar   
    10    4   32 1    
    11    5    7 ar   
    12    5    9 ar   
    13    5   33 1    
    14    6    7 ar   
    15    6   10 ar   
    16    6   34 1    
    17    7   13 1    
    18    8   15 1    
    19    9   11 ar   
    20    9   24 1    
    21   10   11 ar   
    22   10   25 1    
    23   11   26 1    
    24   12   28 1    
    25   13   20 ar   
    26   13   23 ar   
    27   14   21 ar   
    28   14   23 ar   
    29   14   27 1    
    30   15   16 1    
    31   15   22 2    
    32   16   27 1    
    33   16   35 1    
    34   16   36 1    
    35   17   24 1    
    36   17   37 1    
    37   17   38 1    
    38   17   39 1    
    39   18   25 1    
    40   18   40 1    
    41   18   41 1    
    42   18   42 1    
    43   19   26 1    
    44   19   43 1    
    45   19   44 1    
    46   19   45 1    
    47   20   21 ar   
    48   22   23 1    
@<TRIPOS>SUBSTRUCTURE
     1 UNK         1 GROUP             0       ****    0 ROOT    
@<TRIPOS>MOLECULE
ZINC05046927_4
41   44    1
SMALL
USER_CHARGES


@<TRIPOS>ATOM
      1 C1         -6.5832   -3.7518   39.6317 C.ar      1 UNK        -0.1150 
      2 C2         -4.9466  -11.1272   37.5265 C.ar      1 UNK        -0.1150 
      3 C3         -4.4501   -8.9242   36.6035 C.ar      1 UNK        -0.1150 
      4 C4         -7.1209   -2.9052   38.6482 C.ar      1 UNK        -0.1150 
      5 C5         -4.7435  -11.7011   36.2553 C.ar      1 UNK        -0.1150 
      6 C6         -4.2492   -9.5014   35.3340 C.ar      1 UNK        -0.1150 
      7 C7         -7.4405   -5.6708   38.4181 C.ar      1 UNK        -0.1150 
      8 C8         -6.7367   -5.1461   39.5225 C.ar      1 UNK         0.0000 
      9 C9         -4.7954   -9.7325   37.7141 C.ar      1 UNK         0.0044 
     10 C10        -7.8192   -3.4181   37.5370 C.ar      1 UNK         0.0850 
     11 C11        -7.9795   -4.8319   37.4074 C.ar      1 UNK         0.0850 
     12 C12        -4.3945  -10.8897   35.1597 C.ar      1 UNK         0.1800 
     13 C13        -6.1601   -6.0219   40.5467 C.ar      1 UNK         0.4100 
     14 C14        -5.1898   -7.5933   41.5636 C.ar      1 UNK         0.5625 
     15 C15        -5.0257   -9.1154   39.0512 C.2       1 UNK         0.3492 
     16 C16        -4.8839   -9.9486   40.3309 C.3       1 UNK         0.0836 
     17 C17        -9.1207   -2.7897   35.5783 C.3       1 UNK         0.1100 
     18 C18        -8.7062   -6.7627   36.1425 C.3       1 UNK         0.1100 
     19 N19        -6.1498   -5.6896   41.8454 N.2       1 UNK        -0.3633 
     20 N20        -5.5152   -6.7193   42.5110 N.2       1 UNK        -0.3633 
     21 N21        -5.3621   -7.8849   39.1124 N.2       1 UNK        -0.3897 
     22 N22        -5.5712   -7.2212   40.3282 N.pl3     1 UNK        -0.0934 
     23 O23        -8.2764   -2.4478   36.6656 O.3       1 UNK        -0.2850 
     24 O24        -8.6420   -5.3536   36.3132 O.3       1 UNK        -0.2850 
     25 S25        -4.3212   -9.0912   41.8327 S.3       1 UNK        -0.3200 
     26 Cl26       -4.1517  -11.5958   33.6061 Cl        1 UNK        -0.1800 
     27 H27        -6.0517   -3.3292   40.4728 H         1 UNK         0.1150 
     28 H28        -5.2285  -11.7752   38.3433 H         1 UNK         0.1150 
     29 H29        -4.3340   -7.8548   36.7154 H         1 UNK         0.1150 
     30 H30        -6.9976   -1.8365   38.7451 H         1 UNK         0.1150 
     31 H31        -4.8591  -12.7663   36.1153 H         1 UNK         0.1150 
     32 H32        -3.9838   -8.8788   34.4916 H         1 UNK         0.1150 
     33 H33        -7.5588   -6.7401   38.3696 H         1 UNK         0.1150 
     34 H34        -5.8532  -10.3974   40.5478 H         1 UNK         0.0600 
     35 H35        -4.1882  -10.7690   40.1581 H         1 UNK         0.0600 
     36 H36        -9.4492   -1.8760   35.0834 H         1 UNK         0.0300 
     37 H37       -10.0157   -3.3170   35.9118 H         1 UNK         0.0300 
     38 H38        -8.5910   -3.3858   34.8346 H         1 UNK         0.0300 
     39 H39        -9.2212   -6.9858   35.2081 H         1 UNK         0.0300 
     40 H40        -9.2688   -7.2383   36.9467 H         1 UNK         0.0300 
     41 H41        -7.7105   -7.2050   36.0820 H         1 UNK         0.0300 
@<TRIPOS>BOND
     1    1    4 ar   
     2    1    8 ar   
     3    1   27 1    
     4    2    5 ar   
     5    2    9 ar   
     6    2   28 1    
     7    3    6 ar   
     8    3    9 ar   
     9    3   29 1    
    10    4   10 ar   
    11    4   30 1    
    12    5   12 ar   
    13    5   31 1    
    14    6   12 ar   
    15    6   32 1    
    16    7    8 ar   
    17    7   11 ar   
    18    7   33 1    
    19    8   13 1    
    20    9   15 1    
    21   10   11 ar   
    22   10   23 1    
    23   11   24 1    
    24   12   26 1    
    25   13   19 ar   
    26   13   22 ar   
    27   14   20 ar   
    28   14   22 ar   
    29   14   25 1    
    30   15   16 1    
    31   15   21 2    
    32   16   25 1    
    33   16   34 1    
    34   16   35 1    
    35   17   23 1    
    36   17   36 1    
    37   17   37 1    
    38   17   38 1    
    39   18   24 1    
    40   18   39 1    
    41   18   40 1    
    42   18   41 1    
    43   19   20 ar   
    44   21   22 1    
@<TRIPOS>SUBSTRUCTURE
     1 UNK         1 GROUP             0       ****    0 ROOT    
@<TRIPOS>MOLECULE
ZINC05047260_45
49   52    1
SMALL
USER_CHARGES


@<TRIPOS>ATOM
      1 C1         -8.5386   -7.0465   38.2528 C.ar      1 UNK        -0.1150 
      2 C2         -5.1639  -10.1834   36.6822 C.ar      1 UNK        -0.1150 
      3 C3         -9.1238   -6.2854   37.2275 C.ar      1 UNK        -0.1150 
      4 C4         -4.8646  -10.8259   35.4682 C.ar      1 UNK        -0.1150 
      5 C5         -7.7792   -4.9970   39.3098 C.ar      1 UNK        -0.1150 
      6 C6         -5.6237  -12.3398   37.6942 C.ar      1 UNK        -0.1150 
      7 C7         -7.8566   -6.4049   39.3036 C.ar      1 UNK         0.0000 
      8 C8         -5.5382  -10.9372   37.8130 C.ar      1 UNK         0.0044 
      9 C9         -9.0528   -4.8782   37.2221 C.ar      1 UNK         0.0850 
     10 C10        -4.9357  -12.2379   35.3436 C.ar      1 UNK         0.0850 
     11 C11        -8.3652   -4.2111   38.2824 C.ar      1 UNK         0.0850 
     12 C12        -5.3325  -13.0017   36.4840 C.ar      1 UNK         0.0850 
     13 C13        -7.2270   -7.1688   40.3837 C.ar      1 UNK         0.4100 
     14 C14        -6.1614   -8.6001   41.5055 C.ar      1 UNK         0.5625 
     15 C15        -5.8592  -10.2614   39.0992 C.2       1 UNK         0.3492 
     16 C16        -5.6915  -11.0029   40.4307 C.3       1 UNK         0.0836 
     17 C17        -9.8214   -2.8815   36.0611 C.3       1 UNK         0.1100 
     18 C18        -4.2273  -12.1055   33.0347 C.3       1 UNK         0.1100 
     19 C19        -7.6261   -2.1802   39.3684 C.3       1 UNK         0.1100 
     20 C20        -5.3562  -15.1767   35.3899 C.3       1 UNK         0.1100 
     21 N21        -7.2465   -6.7492   41.6569 N.2       1 UNK        -0.3633 
     22 N22        -6.5493   -7.6872   42.3913 N.2       1 UNK        -0.3633 
     23 N23        -6.2846   -9.0569   39.0766 N.2       1 UNK        -0.3897 
     24 N24        -6.5551   -8.3354   40.2464 N.pl3     1 UNK        -0.0934 
     25 O25        -9.6816   -4.2906   36.1405 O.3       1 UNK        -0.2850 
     26 O26        -4.6266  -12.8767   34.1592 O.3       1 UNK        -0.2850 
     27 O27        -8.2733   -2.8329   38.2846 O.3       1 UNK        -0.2850 
     28 O28        -5.4683  -14.3752   36.5555 O.3       1 UNK        -0.2850 
     29 S29        -5.1986  -10.0165   41.8773 S.3       1 UNK        -0.3200 
     30 H30        -8.6210   -8.1229   38.2290 H         1 UNK         0.1150 
     31 H31        -5.0970   -9.1055   36.7375 H         1 UNK         0.1150 
     32 H32        -9.6450   -6.7879   36.4261 H         1 UNK         0.1150 
     33 H33        -4.5774  -10.1971   34.6401 H         1 UNK         0.1150 
     34 H34        -7.2485   -4.5411   40.1311 H         1 UNK         0.1150 
     35 H35        -5.9294  -12.9444   38.5350 H         1 UNK         0.1150 
     36 H36        -6.6377  -11.4906   40.6657 H         1 UNK         0.0600 
     37 H37        -4.9503  -11.7936   40.3183 H         1 UNK         0.0600 
     38 H38       -10.4235   -2.6338   35.1871 H         1 UNK         0.0300 
     39 H39        -8.8560   -2.3903   35.9367 H         1 UNK         0.0300 
     40 H40       -10.3363   -2.4773   36.9334 H         1 UNK         0.0300 
     41 H41        -4.0165  -12.7730   32.1992 H         1 UNK         0.0300 
     42 H42        -3.3171  -11.5402   33.2391 H         1 UNK         0.0300 
     43 H43        -5.0169  -11.4229   32.7176 H         1 UNK         0.0300 
     44 H44        -7.6696   -1.1021   39.2144 H         1 UNK         0.0300 
     45 H45        -6.5735   -2.4590   39.4328 H         1 UNK         0.0300 
     46 H46        -8.1191   -2.3956   40.3174 H         1 UNK         0.0300 
     47 H47        -5.5944  -16.2091   35.6451 H         1 UNK         0.0300 
     48 H48        -4.3395  -15.1696   34.9958 H         1 UNK         0.0300 
     49 H49        -6.0590  -14.8641   34.6166 H         1 UNK         0.0300 
@<TRIPOS>BOND
     1    1    3 ar   
     2    1    7 ar   
     3    1   30 1    
     4    2    4 ar   
     5    2    8 ar   
     6    2   31 1    
     7    3    9 ar   
     8    3   32 1    
     9    4   10 ar   
    10    4   33 1    
    11    5    7 ar   
    12    5   11 ar   
    13    5   34 1    
    14    6    8 ar   
    15    6   12 ar   
    16    6   35 1    
    17    7   13 1    
    18    8   15 1    
    19    9   11 ar   
    20    9   25 1    
    21   10   12 ar   
    22   10   26 1    
    23   11   27 1    
    24   12   28 1    
    25   13   21 ar   
    26   13   24 ar   
    27   14   22 ar   
    28   14   24 ar   
    29   14   29 1    
    30   15   16 1    
    31   15   23 2    
    32   16   29 1    
    33   16   36 1    
    34   16   37 1    
    35   17   25 1    
    36   17   38 1    
    37   17   39 1    
    38   17   40 1    
    39   18   26 1    
    40   18   41 1    
    41   18   42 1    
    42   18   43 1    
    43   19   27 1    
    44   19   44 1    
    45   19   45 1    
    46   19   46 1    
    47   20   28 1    
    48   20   47 1    
    49   20   48 1    
    50   20   49 1    
    51   21   22 ar   
    52   23   24 1    
@<TRIPOS>SUBSTRUCTURE
     1 UNK         1 GROUP             0       ****    0 ROOT    
@<TRIPOS>MOLECULE
ZINC05069747_5
41   44    1
SMALL
USER_CHARGES


@<TRIPOS>ATOM
      1 C1         -6.5793   -3.7507   39.6277 C.ar      1 UNK        -0.1150 
      2 C2         -4.9409  -11.1268   37.5292 C.ar      1 UNK        -0.1150 
      3 C3         -4.4514   -8.9224   36.6051 C.ar      1 UNK        -0.1150 
      4 C4         -7.1153   -2.9043   38.6430 C.ar      1 UNK        -0.1150 
      5 C5         -4.7353  -11.7004   36.2581 C.ar      1 UNK        -0.1150 
      6 C6         -4.2468   -9.5003   35.3363 C.ar      1 UNK        -0.1150 
      7 C7         -7.4450   -5.6695   38.4196 C.ar      1 UNK        -0.1150 
      8 C8         -6.7377   -5.1445   39.5217 C.ar      1 UNK         0.0000 
      9 C9         -4.7947   -9.7313   37.7161 C.ar      1 UNK         0.0044 
     10 C10        -7.8174   -3.4173   37.5342 C.ar      1 UNK         0.0850 
     11 C11        -7.9827   -4.8310   37.4078 C.ar      1 UNK         0.0850 
     12 C12        -4.3876  -10.8888   35.1629 C.ar      1 UNK         0.2200 
     13 C13        -6.1625   -6.0201   40.5468 C.ar      1 UNK         0.4100 
     14 C14        -5.1933   -7.5913   41.5649 C.ar      1 UNK         0.5625 
     15 C15        -5.0269   -9.1141   39.0529 C.2       1 UNK         0.3492 
     16 C16        -4.8851   -9.9470   40.3329 C.3       1 UNK         0.0836 
     17 C17        -9.1199   -2.7884   35.5763 C.3       1 UNK         0.1100 
     18 C18        -8.7118   -6.7618   36.1453 C.3       1 UNK         0.1100 
     19 N19        -6.1523   -5.6870   41.8453 N.2       1 UNK        -0.3633 
     20 N20        -5.5186   -6.7167   42.5116 N.2       1 UNK        -0.3633 
     21 N21        -5.3644   -7.8838   39.1136 N.2       1 UNK        -0.3897 
     22 N22        -5.5740   -7.2196   40.3292 N.pl3     1 UNK        -0.0934 
     23 O23        -8.2725   -2.4472   36.6612 O.3       1 UNK        -0.2850 
     24 O24        -8.6485   -5.3527   36.3159 O.3       1 UNK        -0.2850 
     25 F25        -4.1935  -11.4431   33.9446 F         1 UNK        -0.2200 
     26 S26        -4.3246   -9.0889   41.8353 S.3       1 UNK        -0.3200 
     27 H27        -6.0451   -3.3282   40.4672 H         1 UNK         0.1150 
     28 H28        -5.2209  -11.7756   38.3460 H         1 UNK         0.1150 
     29 H29        -4.3391   -7.8525   36.7159 H         1 UNK         0.1150 
     30 H30        -6.9880   -1.8358   38.7373 H         1 UNK         0.1150 
     31 H31        -4.8471  -12.7654   36.1155 H         1 UNK         0.1150 
     32 H32        -3.9825   -8.8799   34.4922 H         1 UNK         0.1150 
     33 H33        -7.5667   -6.7387   38.3737 H         1 UNK         0.1150 
     34 H34        -5.8539  -10.3974   40.5492 H         1 UNK         0.0600 
     35 H35        -4.1883  -10.7667   40.1607 H         1 UNK         0.0600 
     36 H36        -9.4446   -1.8745   35.0791 H         1 UNK         0.0300 
     37 H37       -10.0165   -3.3104   35.9130 H         1 UNK         0.0300 
     38 H38        -8.5941   -3.3897   34.8339 H         1 UNK         0.0300 
     39 H39        -9.2272   -6.9855   35.2114 H         1 UNK         0.0300 
     40 H40        -9.2736   -7.2373   36.9501 H         1 UNK         0.0300 
     41 H41        -7.7157   -7.2033   36.0844 H         1 UNK         0.0300 
@<TRIPOS>BOND
     1    1    4 ar   
     2    1    8 ar   
     3    1   27 1    
     4    2    5 ar   
     5    2    9 ar   
     6    2   28 1    
     7    3    6 ar   
     8    3    9 ar   
     9    3   29 1    
    10    4   10 ar   
    11    4   30 1    
    12    5   12 ar   
    13    5   31 1    
    14    6   12 ar   
    15    6   32 1    
    16    7    8 ar   
    17    7   11 ar   
    18    7   33 1    
    19    8   13 1    
    20    9   15 1    
    21   10   11 ar   
    22   10   23 1    
    23   11   24 1    
    24   12   25 1    
    25   13   19 ar   
    26   13   22 ar   
    27   14   20 ar   
    28   14   22 ar   
    29   14   26 1    
    30   15   16 1    
    31   15   21 2    
    32   16   26 1    
    33   16   34 1    
    34   16   35 1    
    35   17   23 1    
    36   17   36 1    
    37   17   37 1    
    38   17   38 1    
    39   18   24 1    
    40   18   39 1    
    41   18   40 1    
    42   18   41 1    
    43   19   20 ar   
    44   21   22 1    
@<TRIPOS>SUBSTRUCTURE
     1 UNK         1 GROUP             0       ****    0 ROOT    
@<TRIPOS>MOLECULE
ZINC05091912_9
49   52    1
SMALL
USER_CHARGES


@<TRIPOS>ATOM
      1 C1         -4.8473  -11.0835   37.3354 C.ar      1 UNK        -0.1150 
      2 C2         -4.4435   -8.8209   36.5317 C.ar      1 UNK        -0.1150 
      3 C3         -4.6128  -11.5851   36.0395 C.ar      1 UNK        -0.1150 
      4 C4         -4.2097   -9.3261   35.2384 C.ar      1 UNK        -0.1150 
      5 C5         -6.9292   -3.9273   39.8231 C.ar      1 UNK        -0.1150 
      6 C6         -7.5870   -5.8083   38.4341 C.ar      1 UNK        -0.1150 
      7 C7         -6.9708   -5.3171   39.6027 C.ar      1 UNK         0.0000 
      8 C8         -4.7606   -9.6965   37.5959 C.ar      1 UNK         0.0044 
      9 C9         -4.2911  -10.7069   34.9759 C.ar      1 UNK         0.0850 
     10 C10        -7.4776   -3.0270   38.8804 C.ar      1 UNK         0.0850 
     11 C11        -8.1362   -4.9316   37.4664 C.ar      1 UNK         0.0850 
     12 C12        -8.0606   -3.5271   37.6926 C.ar      1 UNK         0.0850 
     13 C13        -6.3724   -6.2209   40.5900 C.ar      1 UNK         0.4100 
     14 C14        -5.3340   -7.7889   41.5439 C.ar      1 UNK         0.5625 
     15 C15        -5.0333   -9.1603   38.9585 C.2       1 UNK         0.3492 
     16 C16        -4.8558  -10.0510   40.1942 C.3       1 UNK         0.0836 
     17 C17        -4.1382  -12.4951   33.3812 C.3       1 UNK         0.1100 
     18 C18        -6.9327   -1.1208   40.2466 C.3       1 UNK         0.1100 
     19 C19        -8.8000   -6.7928   36.0743 C.3       1 UNK         0.1100 
     20 C20        -8.4232   -2.8029   35.4294 C.3       1 UNK         0.1100 
     21 N21        -6.4116   -5.9637   41.9054 N.2       1 UNK        -0.3633 
     22 N22        -5.7317   -6.9898   42.5291 N.2       1 UNK        -0.3633 
     23 N23        -5.4385   -7.9549   39.0780 N.2       1 UNK        -0.3897 
     24 N24        -5.7100   -7.3711   40.3217 N.pl3     1 UNK        -0.0934 
     25 O25        -4.0526  -11.1095   33.6808 O.3       1 UNK        -0.2850 
     26 O26        -7.4628   -1.6561   39.0433 O.3       1 UNK        -0.2850 
     27 O27        -8.7657   -5.3950   36.3270 O.3       1 UNK        -0.2850 
     28 O28        -8.5607   -2.5782   36.8242 O.3       1 UNK        -0.2850 
     29 S29        -4.3814   -9.2443   41.7538 S.3       1 UNK        -0.3200 
     30 H30        -5.1056  -11.7831   38.1165 H         1 UNK         0.1150 
     31 H31        -4.3759   -7.7544   36.6963 H         1 UNK         0.1150 
     32 H32        -4.6911  -12.6505   35.8851 H         1 UNK         0.1150 
     33 H33        -3.9674   -8.6462   34.4344 H         1 UNK         0.1150 
     34 H34        -6.4624   -3.5730   40.7296 H         1 UNK         0.1150 
     35 H35        -7.6389   -6.8764   38.3040 H         1 UNK         0.1150 
     36 H36        -5.7945  -10.5782   40.3646 H         1 UNK         0.0600 
     37 H37        -4.1008  -10.8097   39.9901 H         1 UNK         0.0600 
     38 H38        -3.9325  -12.6468   32.3217 H         1 UNK         0.0300 
     39 H39        -5.1367  -12.8863   33.5815 H         1 UNK         0.0300 
     40 H40        -3.4035  -13.0710   33.9456 H         1 UNK         0.0300 
     41 H41        -7.0254   -0.0350   40.2270 H         1 UNK         0.0300 
     42 H42        -5.8739   -1.3586   40.3564 H         1 UNK         0.0300 
     43 H43        -7.4786   -1.4821   41.1192 H         1 UNK         0.0300 
     44 H44        -9.3014   -6.9716   35.1232 H         1 UNK         0.0300 
     45 H45        -9.3606   -7.3240   36.8447 H         1 UNK         0.0300 
     46 H46        -7.7954   -7.2121   35.9999 H         1 UNK         0.0300 
     47 H47        -8.3884   -1.8416   34.9170 H         1 UNK         0.0300 
     48 H48        -9.2783   -3.3507   35.0330 H         1 UNK         0.0300 
     49 H49        -7.5046   -3.3386   35.1846 H         1 UNK         0.0300 
@<TRIPOS>BOND
     1    1    3 ar   
     2    1    8 ar   
     3    1   30 1    
     4    2    4 ar   
     5    2    8 ar   
     6    2   31 1    
     7    3    9 ar   
     8    3   32 1    
     9    4    9 ar   
    10    4   33 1    
    11    5    7 ar   
    12    5   10 ar   
    13    5   34 1    
    14    6    7 ar   
    15    6   11 ar   
    16    6   35 1    
    17    7   13 1    
    18    8   15 1    
    19    9   25 1    
    20   10   12 ar   
    21   10   26 1    
    22   11   12 ar   
    23   11   27 1    
    24   12   28 1    
    25   13   21 ar   
    26   13   24 ar   
    27   14   22 ar   
    28   14   24 ar   
    29   14   29 1    
    30   15   16 1    
    31   15   23 2    
    32   16   29 1    
    33   16   36 1    
    34   16   37 1    
    35   17   25 1    
    36   17   38 1    
    37   17   39 1    
    38   17   40 1    
    39   18   26 1    
    40   18   41 1    
    41   18   42 1    
    42   18   43 1    
    43   19   27 1    
    44   19   44 1    
    45   19   45 1    
    46   19   46 1    
    47   20   28 1    
    48   20   47 1    
    49   20   48 1    
    50   20   49 1    
    51   21   22 ar   
    52   23   24 1    
@<TRIPOS>SUBSTRUCTURE
     1 UNK         1 GROUP             0       ****    0 ROOT    
@<TRIPOS>MOLECULE
ZINC05111919_7
45   48    1
SMALL
USER_CHARGES


@<TRIPOS>ATOM
      1 C1         -4.9621  -11.1737   37.3462 C.ar      1 UNK        -0.1150 
      2 C2         -4.4826   -8.9237   36.5333 C.ar      1 UNK        -0.1150 
      3 C3         -4.7229  -11.6867   36.0553 C.ar      1 UNK        -0.1150 
      4 C4         -4.2449   -9.4408   35.2443 C.ar      1 UNK        -0.1150 
      5 C5         -6.8257   -3.9536   39.7494 C.ar      1 UNK        -0.1150 
      6 C6         -7.6300   -5.8451   38.4543 C.ar      1 UNK        -0.1150 
      7 C7         -6.9434   -5.3454   39.5785 C.ar      1 UNK         0.0000 
      8 C8         -4.8378   -9.7865   37.5987 C.ar      1 UNK         0.0044 
      9 C9         -7.3681   -3.0597   38.7973 C.ar      1 UNK         0.0850 
     10 C10        -8.1808   -4.9753   37.4813 C.ar      1 UNK         0.0850 
     11 C11        -8.0269   -3.5690   37.6535 C.ar      1 UNK         0.0850 
     12 C12        -4.3638  -10.8218   35.0055 C.ar      1 UNK         0.2200 
     13 C13        -6.3519   -6.2464   40.5703 C.ar      1 UNK         0.4100 
     14 C14        -5.3416   -7.8287   41.5293 C.ar      1 UNK         0.5625 
     15 C15        -5.1046   -9.2346   38.9567 C.2       1 UNK         0.3492 
     16 C16        -4.9472  -10.1176   40.2005 C.3       1 UNK         0.0836 
     17 C17        -6.6651   -1.1381   40.0671 C.3       1 UNK         0.1100 
     18 C18        -9.0023   -6.8489   36.1938 C.3       1 UNK         0.1100 
     19 C19        -8.4992   -2.9114   35.3856 C.3       1 UNK         0.1100 
     20 N20        -6.3635   -5.9693   41.8818 N.2       1 UNK        -0.3633 
     21 N21        -5.7024   -7.0059   42.5094 N.2       1 UNK        -0.3633 
     22 N22        -5.4827   -8.0195   39.0660 N.2       1 UNK        -0.3897 
     23 N23        -5.7238   -7.4162   40.3070 N.pl3     1 UNK        -0.0934 
     24 O24        -7.2764   -1.6866   38.9090 O.3       1 UNK        -0.2850 
     25 O25        -8.8831   -5.4471   36.3890 O.3       1 UNK        -0.2850 
     26 O26        -8.5153   -2.6223   36.7754 O.3       1 UNK        -0.2850 
     27 F27        -4.1374  -11.3176   33.7677 F         1 UNK        -0.2200 
     28 S28        -4.4266   -9.3078   41.7432 S.3       1 UNK        -0.3200 
     29 H29        -5.2501  -11.8613   38.1276 H         1 UNK         0.1150 
     30 H30        -4.3865   -7.8588   36.6956 H         1 UNK         0.1150 
     31 H31        -4.8175  -12.7455   35.8626 H         1 UNK         0.1150 
     32 H32        -3.9713   -8.7799   34.4346 H         1 UNK         0.1150 
     33 H33        -6.3058   -3.5943   40.6246 H         1 UNK         0.1150 
     34 H34        -7.7336   -6.9138   38.3654 H         1 UNK         0.1150 
     35 H35        -5.9030  -10.6067   40.3881 H         1 UNK         0.0600 
     36 H36        -4.2237  -10.9069   39.9983 H         1 UNK         0.0600 
     37 H37        -6.6990   -0.0503   40.0094 H         1 UNK         0.0300 
     38 H38        -5.6170   -1.4302   40.1420 H         1 UNK         0.0300 
     39 H39        -7.1909   -1.4361   40.9752 H         1 UNK         0.0300 
     40 H40        -9.5612   -7.0355   35.2769 H         1 UNK         0.0300 
     41 H41        -9.5475   -7.3217   37.0117 H         1 UNK         0.0300 
     42 H42        -8.0251   -7.3220   36.0848 H         1 UNK         0.0300 
     43 H43        -8.4458   -1.9757   34.8295 H         1 UNK         0.0300 
     44 H44        -9.4147   -3.4178   35.0792 H         1 UNK         0.0300 
     45 H45        -7.6357   -3.5132   35.0978 H         1 UNK         0.0300 
@<TRIPOS>BOND
     1    1    3 ar   
     2    1    8 ar   
     3    1   29 1    
     4    2    4 ar   
     5    2    8 ar   
     6    2   30 1    
     7    3   12 ar   
     8    3   31 1    
     9    4   12 ar   
    10    4   32 1    
    11    5    7 ar   
    12    5    9 ar   
    13    5   33 1    
    14    6    7 ar   
    15    6   10 ar   
    16    6   34 1    
    17    7   13 1    
    18    8   15 1    
    19    9   11 ar   
    20    9   24 1    
    21   10   11 ar   
    22   10   25 1    
    23   11   26 1    
    24   12   27 1    
    25   13   20 ar   
    26   13   23 ar   
    27   14   21 ar   
    28   14   23 ar   
    29   14   28 1    
    30   15   16 1    
    31   15   22 2    
    32   16   28 1    
    33   16   35 1    
    34   16   36 1    
    35   17   24 1    
    36   17   37 1    
    37   17   38 1    
    38   17   39 1    
    39   18   25 1    
    40   18   40 1    
    41   18   41 1    
    42   18   42 1    
    43   19   26 1    
    44   19   43 1    
    45   19   44 1    
    46   19   45 1    
    47   20   21 ar   
    48   22   23 1    
@<TRIPOS>SUBSTRUCTURE
     1 UNK         1 GROUP             0       ****    0 ROOT    
@<TRIPOS>MOLECULE
ZINC05120403_148
48   51    1
SMALL
USER_CHARGES


@<TRIPOS>ATOM
      1 C1         -7.6182   -5.8321   38.2389 C.ar      1 UNK        -0.1150 
      2 C2         -4.9185  -11.2662   37.6607 C.ar      1 UNK        -0.1150 
      3 C3         -4.4643   -9.0981   36.6532 C.ar      1 UNK        -0.1150 
      4 C4         -8.1418   -5.0206   37.2189 C.ar      1 UNK        -0.1150 
      5 C5         -4.6381  -11.8892   36.4292 C.ar      1 UNK        -0.1150 
      6 C6         -4.1877   -9.7252   35.4226 C.ar      1 UNK        -0.1150 
      7 C7         -6.8201   -3.8436   39.3797 C.ar      1 UNK        -0.1150 
      8 C8         -6.9466   -5.2472   39.3290 C.ar      1 UNK         0.0000 
      9 C9         -4.8255   -9.8617   37.7877 C.ar      1 UNK         0.0044 
     10 C10        -4.2680  -11.1338   35.2998 C.ar      1 UNK         0.0850 
     11 C11        -8.0185   -3.6175   37.2568 C.ar      1 UNK         0.0850 
     12 C12        -7.3458   -3.0070   38.3599 C.ar      1 UNK         0.0850 
     13 C13        -6.3780   -6.0636   40.4052 C.ar      1 UNK         0.4100 
     14 C14        -5.4029   -7.5638   41.5191 C.ar      1 UNK         0.5625 
     15 C15        -5.1260   -9.1916   39.0845 C.2       1 UNK         0.3492 
     16 C16        -5.0080   -9.9633   40.4048 C.3       1 UNK         0.0836 
     17 C17        -2.1149  -10.7961   33.0210 C.3       1 UNK        -0.1800 
     18 C18        -8.5925   -1.5616   36.0843 C.3       1 UNK         0.1100 
     19 C19        -6.6062   -1.0354   39.5499 C.3       1 UNK         0.1100 
     20 C20        -3.6087  -11.1456   32.9673 C.3       1 UNK         0.1400 
     21 N21        -6.4078   -5.6702   41.6868 N.2       1 UNK        -0.3633 
     22 N22        -5.7699   -6.6532   42.4157 N.2       1 UNK        -0.3633 
     23 N23        -5.4972   -7.9688   39.0797 N.2       1 UNK        -0.3897 
     24 N24        -5.7575   -7.2573   40.2579 N.pl3     1 UNK        -0.0934 
     25 O25        -8.5907   -2.9771   36.1736 O.3       1 UNK        -0.2850 
     26 O26        -7.2140   -1.6331   38.4132 O.3       1 UNK        -0.2850 
     27 O27        -4.0165  -11.8387   34.1419 O.3       1 UNK        -0.2850 
     28 S28        -4.5101   -9.0271   41.8823 S.3       1 UNK        -0.3200 
     29 H29        -7.7400   -6.9034   38.1800 H         1 UNK         0.1150 
     30 H30        -5.2124  -11.8868   38.4941 H         1 UNK         0.1150 
     31 H31        -4.3935   -8.0211   36.7165 H         1 UNK         0.1150 
     32 H32        -8.6543   -5.4800   36.3863 H         1 UNK         0.1150 
     33 H33        -4.7101  -12.9639   36.3436 H         1 UNK         0.1150 
     34 H34        -3.9136   -9.0984   34.5886 H         1 UNK         0.1150 
     35 H35        -6.3007   -3.4308   40.2306 H         1 UNK         0.1150 
     36 H36        -5.9740  -10.4239   40.6116 H         1 UNK         0.0600 
     37 H37        -4.2898  -10.7747   40.2918 H         1 UNK         0.0600 
     38 H38        -1.8819  -10.1216   33.8441 H         1 UNK         0.0600 
     39 H39        -1.5131  -11.6957   33.1508 H         1 UNK         0.0600 
     40 H40        -1.7967  -10.3137   32.0969 H         1 UNK         0.0600 
     41 H41        -9.1180   -1.2643   35.1773 H         1 UNK         0.0300 
     42 H42        -7.5797   -1.1633   36.0159 H         1 UNK         0.0300 
     43 H43        -9.1172   -1.1059   36.9249 H         1 UNK         0.0300 
     44 H44        -6.6250    0.0485   39.4369 H         1 UNK         0.0300 
     45 H45        -5.5624   -1.3361   39.6498 H         1 UNK         0.0300 
     46 H46        -7.1454   -1.2780   40.4668 H         1 UNK         0.0300 
     47 H47        -3.7806  -11.8146   32.1238 H         1 UNK         0.0300 
     48 H48        -4.2280  -10.2695   32.7733 H         1 UNK         0.0300 
@<TRIPOS>BOND
     1    1    4 ar   
     2    1    8 ar   
     3    1   29 1    
     4    2    5 ar   
     5    2    9 ar   
     6    2   30 1    
     7    3    6 ar   
     8    3    9 ar   
     9    3   31 1    
    10    4   11 ar   
    11    4   32 1    
    12    5   10 ar   
    13    5   33 1    
    14    6   10 ar   
    15    6   34 1    
    16    7    8 ar   
    17    7   12 ar   
    18    7   35 1    
    19    8   13 1    
    20    9   15 1    
    21   10   27 1    
    22   11   12 ar   
    23   11   25 1    
    24   12   26 1    
    25   13   21 ar   
    26   13   24 ar   
    27   14   22 ar   
    28   14   24 ar   
    29   14   28 1    
    30   15   16 1    
    31   15   23 2    
    32   16   28 1    
    33   16   36 1    
    34   16   37 1    
    35   17   20 1    
    36   17   38 1    
    37   17   39 1    
    38   17   40 1    
    39   18   25 1    
    40   18   41 1    
    41   18   42 1    
    42   18   43 1    
    43   19   26 1    
    44   19   44 1    
    45   19   45 1    
    46   19   46 1    
    47   20   27 1    
    48   20   47 1    
    49   20   48 1    
    50   21   22 ar   
    51   23   24 1    
@<TRIPOS>SUBSTRUCTURE
     1 UNK         1 GROUP             0       ****    0 ROOT    
@<TRIPOS>MOLECULE
ZINC05123743_29
45   48    1
SMALL
USER_CHARGES


@<TRIPOS>ATOM
      1 C1        -12.0292  -10.8418   38.4855 C.ar      1 UNK        -0.1150 
      2 C2         -9.9106  -16.4594   37.6163 C.ar      1 UNK        -0.1150 
      3 C3         -9.0641  -14.3339   36.7829 C.ar      1 UNK        -0.1150 
      4 C4        -12.4590   -9.9384   37.4970 C.ar      1 UNK        -0.1150 
      5 C5         -9.6588  -17.0449   36.3605 C.ar      1 UNK        -0.1150 
      6 C6         -8.8132  -14.9232   35.5281 C.ar      1 UNK        -0.1150 
      7 C7        -11.0147   -9.0083   39.7033 C.ar      1 UNK        -0.1150 
      8 C8        -11.2955  -10.3844   39.5967 C.ar      1 UNK         0.0000 
      9 C9         -9.6079  -15.0977   37.8414 C.ar      1 UNK         0.0044 
     10 C10        -9.1078  -16.2907   35.3066 C.ar      1 UNK         0.0850 
     11 C11       -12.1746   -8.5511   37.5948 C.ar      1 UNK         0.0850 
     12 C12       -11.4493   -8.0839   38.7323 C.ar      1 UNK         0.0850 
     13 C13       -10.8269  -11.3046   40.6354 C.ar      1 UNK         0.4100 
     14 C14       -10.0315  -12.9548   41.6778 C.ar      1 UNK         0.5625 
     15 C15        -9.8762  -14.4688   39.1636 C.2       1 UNK         0.3492 
     16 C16        -9.8776  -15.3181   40.4400 C.3       1 UNK         0.0836 
     17 C17        -8.3345  -16.2157   33.0359 C.3       1 UNK         0.1100 
     18 C18       -13.2905   -8.1283   35.4925 C.3       1 UNK         0.1100 
     19 C19       -11.7914   -5.7120   38.3618 C.3       1 UNK         0.1100 
     20 N20       -10.8448  -10.9810   41.9363 N.2       1 UNK        -0.3633 
     21 N21       -10.3250  -12.0625   42.6187 N.2       1 UNK        -0.3633 
     22 N22       -10.1158  -13.2151   39.2180 N.2       1 UNK        -0.3897 
     23 N23       -10.3264  -12.5451   40.4305 N.pl3     1 UNK        -0.0934 
     24 O24        -8.8948  -16.9484   34.1158 O.3       1 UNK        -0.2850 
     25 O25       -12.5612   -7.6568   36.6163 O.3       1 UNK        -0.2850 
     26 O26       -11.0932   -6.7749   38.9916 O.3       1 UNK        -0.2850 
     27 S27        -9.3049  -14.5225   41.9714 S.3       1 UNK        -0.3200 
     28 H28       -12.2664  -11.8905   38.3855 H         1 UNK         0.1150 
     29 H29       -10.3450  -17.0718   38.3927 H         1 UNK         0.1150 
     30 H30        -8.8298  -13.2882   36.9267 H         1 UNK         0.1150 
     31 H31       -13.0071  -10.3472   36.6630 H         1 UNK         0.1150 
     32 H32        -9.8925  -18.0873   36.1979 H         1 UNK         0.1150 
     33 H33        -8.3937  -14.3023   34.7516 H         1 UNK         0.1150 
     34 H34       -10.4584   -8.6472   40.5566 H         1 UNK         0.1150 
     35 H35       -10.8954  -15.6706   40.6081 H         1 UNK         0.0600 
     36 H36        -9.2591  -16.2026   40.2912 H         1 UNK         0.0600 
     37 H37        -8.2223  -16.8740   32.1745 H         1 UNK         0.0300 
     38 H38        -7.3458  -15.8291   33.2861 H         1 UNK         0.0300 
     39 H39        -8.9814  -15.3901   32.7369 H         1 UNK         0.0300 
     40 H40       -13.5193   -7.2881   34.8368 H         1 UNK         0.0300 
     41 H41       -14.2383   -8.5786   35.7907 H         1 UNK         0.0300 
     42 H42       -12.7109   -8.8479   34.9126 H         1 UNK         0.0300 
     43 H43       -12.8719   -5.8598   38.3899 H         1 UNK         0.0300 
     44 H44       -11.4629   -5.5778   37.3309 H         1 UNK         0.0300 
     45 H45       -11.5767   -4.7843   38.8914 H         1 UNK         0.0300 
@<TRIPOS>BOND
     1    1    4 ar   
     2    1    8 ar   
     3    1   28 1    
     4    2    5 ar   
     5    2    9 ar   
     6    2   29 1    
     7    3    6 ar   
     8    3    9 ar   
     9    3   30 1    
    10    4   11 ar   
    11    4   31 1    
    12    5   10 ar   
    13    5   32 1    
    14    6   10 ar   
    15    6   33 1    
    16    7    8 ar   
    17    7   12 ar   
    18    7   34 1    
    19    8   13 1    
    20    9   15 1    
    21   10   24 1    
    22   11   12 ar   
    23   11   25 1    
    24   12   26 1    
    25   13   20 ar   
    26   13   23 ar   
    27   14   21 ar   
    28   14   23 ar   
    29   14   27 1    
    30   15   16 1    
    31   15   22 2    
    32   16   27 1    
    33   16   35 1    
    34   16   36 1    
    35   17   24 1    
    36   17   37 1    
    37   17   38 1    
    38   17   39 1    
    39   18   25 1    
    40   18   40 1    
    41   18   41 1    
    42   18   42 1    
    43   19   26 1    
    44   19   43 1    
    45   19   44 1    
    46   19   45 1    
    47   20   21 ar   
    48   22   23 1    
@<TRIPOS>SUBSTRUCTURE
     1 UNK         1 GROUP             0       ****    0 ROOT    
@<TRIPOS>MOLECULE
ZINC05175708_233
38   39    1
SMALL
USER_CHARGES


@<TRIPOS>ATOM
      1 C1        -10.3588   -7.8098   38.9862 C.ar      1 UNK        -0.1150 
      2 C2         -8.4881  -15.2839   37.5436 C.ar      1 UNK        -0.1150 
      3 C3        -11.0784   -7.1222   37.9921 C.ar      1 UNK        -0.1150 
      4 C4         -8.0556  -15.9975   36.4095 C.ar      1 UNK        -0.1150 
      5 C5        -11.5660   -9.8490   38.4462 C.ar      1 UNK        -0.1150 
      6 C6         -7.5851  -13.8987   35.2727 C.ar      1 UNK        -0.1150 
      7 C7        -10.5861   -9.1821   39.2162 C.ar      1 UNK        -0.1150 
      8 C8         -8.4849  -13.8722   37.5537 C.ar      1 UNK         0.2000 
      9 C9        -12.0472   -7.7952   37.2079 C.ar      1 UNK         0.0850 
     10 C10       -12.2943   -9.1678   37.4393 C.ar      1 UNK         0.0850 
     11 C11        -7.6067  -15.3039   35.2726 C.ar      1 UNK         0.2200 
     12 C12        -8.0155  -13.1796   36.4038 C.ar      1 UNK         0.2200 
     13 C13        -9.4311  -11.3084   40.1064 C.2       1 UNK        -0.1150 
     14 C14        -9.2664  -11.9071   38.9106 C.2       1 UNK        -0.0970 
     15 C15        -9.7949   -9.8818   40.2731 C.2       1 UNK         0.5850 
     16 C16       -12.5415   -5.8131   35.9387 C.3       1 UNK         0.1100 
     17 C17       -13.5043  -11.1576   36.8313 C.3       1 UNK         0.1100 
     18 N18        -8.9343  -13.2431   38.7273 N.pl3     1 UNK        -0.5717 
     19 O19        -9.4197   -9.2760   41.2759 O.2       1 UNK        -0.4700 
     20 O20       -12.7831   -7.1842   36.2136 O.3       1 UNK        -0.2850 
     21 O21       -13.2523   -9.7726   36.6517 O.3       1 UNK        -0.2850 
     22 F22        -7.1910  -15.9895   34.1828 F         1 UNK        -0.2200 
     23 F23        -7.9434  -11.8276   36.3654 F         1 UNK        -0.2200 
     24 H24        -9.6222   -7.2787   39.5734 H         1 UNK         0.1150 
     25 H25        -8.8338  -15.8349   38.4054 H         1 UNK         0.1150 
     26 H26       -10.8656   -6.0743   37.8506 H         1 UNK         0.1150 
     27 H27        -8.0671  -17.0777   36.4071 H         1 UNK         0.1150 
     28 H28       -11.7555  -10.8914   38.6472 H         1 UNK         0.1150 
     29 H29        -7.2300  -13.3666   34.4036 H         1 UNK         0.1150 
     30 H30        -9.2750  -11.8642   41.0182 H         1 UNK         0.1150 
     31 H31        -9.4019  -11.3519   37.9940 H         1 UNK         0.1150 
     32 H32       -13.1897   -5.4917   35.1239 H         1 UNK         0.0300 
     33 H33       -11.5105   -5.6446   35.6252 H         1 UNK         0.0300 
     34 H34       -12.7652   -5.1878   36.8039 H         1 UNK         0.0300 
     35 H35       -14.2657  -11.4784   36.1205 H         1 UNK         0.0300 
     36 H36       -13.8807  -11.3670   37.8334 H         1 UNK         0.0300 
     37 H37       -12.6095  -11.7538   36.6469 H         1 UNK         0.0300 
     38 H38        -8.9766  -13.8395   39.5409 H         1 UNK         0.3537 
@<TRIPOS>BOND
     1    1    3 ar   
     2    1    7 ar   
     3    1   24 1    
     4    2    4 ar   
     5    2    8 ar   
     6    2   25 1    
     7    3    9 ar   
     8    3   26 1    
     9    4   11 ar   
    10    4   27 1    
    11    5    7 ar   
    12    5   10 ar   
    13    5   28 1    
    14    6   11 ar   
    15    6   12 ar   
    16    6   29 1    
    17    7   15 1    
    18    8   12 ar   
    19    8   18 1    
    20    9   10 ar   
    21    9   20 1    
    22   10   21 1    
    23   11   22 1    
    24   12   23 1    
    25   13   14 2    
    26   13   15 1    
    27   13   30 1    
    28   14   18 1    
    29   14   31 1    
    30   15   19 2    
    31   16   20 1    
    32   16   32 1    
    33   16   33 1    
    34   16   34 1    
    35   17   21 1    
    36   17   35 1    
    37   17   36 1    
    38   17   37 1    
    39   18   38 1    
@<TRIPOS>SUBSTRUCTURE
     1 UNK         1 GROUP             0       ****    0 ROOT    
@<TRIPOS>MOLECULE
ZINC05451645_141
47   49    1
SMALL
USER_CHARGES


@<TRIPOS>ATOM
      1 C1         -7.1826  -14.2391   37.6703 C.ar      1 UNK        -0.1150 
      2 C2         -7.2717  -12.0940   36.5303 C.ar      1 UNK        -0.1150 
      3 C3         -7.2429  -14.9016   36.4282 C.ar      1 UNK        -0.1150 
      4 C4         -7.3298  -12.7573   35.2903 C.ar      1 UNK        -0.1150 
      5 C5        -10.7523   -5.1431   37.0977 C.ar      1 UNK        -0.1150 
      6 C6        -10.3772   -6.2562   36.3231 C.ar      1 UNK        -0.1150 
      7 C7         -9.8961   -6.2314   39.0949 C.ar      1 UNK        -0.1150 
      8 C8         -7.1912  -12.8268   37.7368 C.ar      1 UNK         0.2000 
      9 C9         -9.5150   -7.3539   38.3215 C.ar      1 UNK         0.0850 
     10 C10        -7.3160  -14.1629   35.2224 C.ar      1 UNK         0.0850 
     11 C11       -10.5185   -5.1151   38.4847 C.ar      1 UNK         0.0850 
     12 C12        -9.7545   -7.3731   36.9297 C.ar      1 UNK         0.0850 
     13 C13        -6.6771  -12.0809   41.3610 C.ar      1 UNK        -0.1150 
     14 C14        -6.6182  -12.6997   40.1691 C.ar      1 UNK         0.0075 
     15 C15        -7.3170  -10.7571   41.4703 C.ar      1 UNK         0.4700 
     16 C16        -7.8318  -10.1950   40.1707 C.ar      1 UNK         0.4529 
     17 C17        -8.4822   -8.8384   40.0917 C.2       1 UNK         0.3238 
     18 C18        -7.3894  -16.1430   33.8677 C.3       1 UNK         0.1100 
     19 C19       -10.6896   -3.9222   40.5598 C.3       1 UNK         0.1100 
     20 C20        -9.6021   -8.5610   34.8436 C.3       1 UNK         0.1100 
     21 N21        -7.7204  -10.8859   39.0676 N.2       1 UNK        -0.3551 
     22 N22        -7.1440  -12.1405   38.9902 N.pl3     1 UNK        -0.2441 
     23 N23        -8.8875   -8.5138   38.8460 N.am      1 UNK        -0.3850 
     24 O24        -7.4001  -10.1899   42.5610 O.2       1 UNK        -0.4700 
     25 O25        -8.6278   -8.0986   41.0647 O.2       1 UNK        -0.5000 
     26 O26        -7.3791  -14.7265   33.9676 O.3       1 UNK        -0.2850 
     27 O27       -10.9201   -3.9826   39.1592 O.3       1 UNK        -0.2850 
     28 O28        -9.3557   -8.5030   36.2406 O.3       1 UNK        -0.2850 
     29 H29        -7.1529  -14.8385   38.5662 H         1 UNK         0.1150 
     30 H30        -7.2823  -11.0142   36.5416 H         1 UNK         0.1150 
     31 H31        -7.2381  -15.9805   36.4288 H         1 UNK         0.1150 
     32 H32        -7.3873  -12.1810   34.3787 H         1 UNK         0.1150 
     33 H33       -11.2268   -4.2963   36.6243 H         1 UNK         0.1150 
     34 H34       -10.5796   -6.2252   35.2642 H         1 UNK         0.1150 
     35 H35        -9.7119   -6.2276   40.1555 H         1 UNK         0.1150 
     36 H36        -6.2525  -12.5199   42.2506 H         1 UNK         0.1150 
     37 H37        -6.1245  -13.6519   40.0444 H         1 UNK         0.1150 
     38 H38        -7.4443  -16.4289   32.8173 H         1 UNK         0.0300 
     39 H39        -8.2573  -16.5714   34.3709 H         1 UNK         0.0300 
     40 H40        -6.4788  -16.5793   34.2803 H         1 UNK         0.0300 
     41 H41       -11.0536   -2.9696   40.9441 H         1 UNK         0.0300 
     42 H42        -9.6258   -3.9863   40.7927 H         1 UNK         0.0300 
     43 H43       -11.2228   -4.7153   41.0860 H         1 UNK         0.0300 
     44 H44        -9.2467   -9.5160   34.4563 H         1 UNK         0.0300 
     45 H45        -9.0703   -7.7707   34.3120 H         1 UNK         0.0300 
     46 H46       -10.6683   -8.4927   34.6229 H         1 UNK         0.0300 
     47 H47        -8.7000   -9.2273   38.1521 H         1 UNK         0.3000 
@<TRIPOS>BOND
     1    1    3 ar   
     2    1    8 ar   
     3    1   29 1    
     4    2    4 ar   
     5    2    8 ar   
     6    2   30 1    
     7    3   10 ar   
     8    3   31 1    
     9    4   10 ar   
    10    4   32 1    
    11    5    6 ar   
    12    5   11 ar   
    13    5   33 1    
    14    6   12 ar   
    15    6   34 1    
    16    7    9 ar   
    17    7   11 ar   
    18    7   35 1    
    19    8   22 1    
    20    9   12 ar   
    21    9   23 1    
    22   10   26 1    
    23   11   27 1    
    24   12   28 1    
    25   13   14 ar   
    26   13   15 ar   
    27   13   36 1    
    28   14   22 ar   
    29   14   37 1    
    30   15   16 ar   
    31   15   24 2    
    32   16   17 1    
    33   16   21 ar   
    34   17   23 am   BACKBONE|DICT|INTERRES
    35   17   25 2    
    36   18   26 1    
    37   18   38 1    
    38   18   39 1    
    39   18   40 1    
    40   19   27 1    
    41   19   41 1    
    42   19   42 1    
    43   19   43 1    
    44   20   28 1    
    45   20   44 1    
    46   20   45 1    
    47   20   46 1    
    48   21   22 ar   
    49   23   47 1    
@<TRIPOS>SUBSTRUCTURE
     1 UNK         1 GROUP             0       ****    0 ROOT    
@<TRIPOS>MOLECULE
ZINC05483979_32
43   45    1
SMALL
USER_CHARGES


@<TRIPOS>ATOM
      1 C1        -11.3573   -5.8560   38.9090 C.ar      1 UNK        -0.1150 
      2 C2        -11.4483   -5.7335   37.5111 C.ar      1 UNK        -0.1150 
      3 C3         -7.4383  -14.6970   37.6607 C.ar      1 UNK        -0.1150 
      4 C4         -7.5304  -12.4663   36.6994 C.ar      1 UNK        -0.1150 
      5 C5        -10.7406   -6.9851   39.4781 C.ar      1 UNK        -0.1150 
      6 C6        -10.9222   -6.7400   36.6793 C.ar      1 UNK        -0.1150 
      7 C7         -7.3217  -15.2491   36.3697 C.ar      1 UNK        -0.1150 
      8 C8         -7.4127  -13.0194   35.4103 C.ar      1 UNK        -0.1150 
      9 C9         -7.5372  -13.2982   37.8427 C.ar      1 UNK         0.2000 
     10 C10       -10.2090   -7.9992   38.6466 C.ar      1 UNK         0.0850 
     11 C11        -7.3052  -14.4110   35.2287 C.ar      1 UNK         0.0850 
     12 C12       -10.2981   -7.8823   37.2403 C.ar      1 UNK         0.0850 
     13 C13        -7.4526  -12.8581   41.5511 C.ar      1 UNK        -0.1150 
     14 C14        -7.2364  -13.3645   40.3251 C.ar      1 UNK         0.0075 
     15 C15        -8.1683  -11.5782   41.7007 C.ar      1 UNK         0.4700 
     16 C16        -8.5702  -10.9231   40.4047 C.ar      1 UNK         0.4529 
     17 C17        -9.2770   -9.5929   40.3728 C.2       1 UNK         0.3238 
     18 C18        -7.0675  -16.2619   33.7192 C.3       1 UNK         0.1100 
     19 C19        -9.8580   -8.8361   35.0768 C.3       1 UNK         0.1100 
     20 N20        -8.3080  -11.5069   39.2656 N.2       1 UNK        -0.3551 
     21 N21        -7.6630  -12.7250   39.1467 N.pl3     1 UNK        -0.2441 
     22 N22        -9.5731   -9.1738   39.1247 N.am      1 UNK        -0.3850 
     23 O23        -8.3972  -11.1176   42.8204 O.2       1 UNK        -0.4700 
     24 O24        -9.5537   -8.9496   41.3850 O.2       1 UNK        -0.5000 
     25 O25        -7.1938  -14.8637   33.9330 O.3       1 UNK        -0.2850 
     26 O26        -9.7584   -8.9110   36.4911 O.3       1 UNK        -0.2850 
     27 H27       -11.7600   -5.0852   39.5499 H         1 UNK         0.1150 
     28 H28       -11.9225   -4.8658   37.0761 H         1 UNK         0.1150 
     29 H29        -7.4716  -15.3723   38.5010 H         1 UNK         0.1150 
     30 H30        -7.6059  -11.3936   36.7984 H         1 UNK         0.1150 
     31 H31       -10.6893   -7.0499   40.5539 H         1 UNK         0.1150 
     32 H32       -11.0110   -6.6101   35.6121 H         1 UNK         0.1150 
     33 H33        -7.2523  -16.3222   36.2822 H         1 UNK         0.1150 
     34 H34        -7.4040  -12.3682   34.5487 H         1 UNK         0.1150 
     35 H35        -7.1026  -13.3563   42.4418 H         1 UNK         0.1150 
     36 H36        -6.6833  -14.2796   40.1763 H         1 UNK         0.1150 
     37 H37        -6.9841  -16.4558   32.6497 H         1 UNK         0.0300 
     38 H38        -7.9418  -16.8024   34.0846 H         1 UNK         0.0300 
     39 H39        -6.1705  -16.6588   34.1963 H         1 UNK         0.0300 
     40 H40        -9.4032   -9.7237   34.6372 H         1 UNK         0.0300 
     41 H41        -9.3284   -7.9665   34.6854 H         1 UNK         0.0300 
     42 H42       -10.8988   -8.8038   34.7510 H         1 UNK         0.0300 
     43 H43        -9.2785   -9.8082   38.3928 H         1 UNK         0.3000 
@<TRIPOS>BOND
     1    1    2 ar   
     2    1    5 ar   
     3    1   27 1    
     4    2    6 ar   
     5    2   28 1    
     6    3    7 ar   
     7    3    9 ar   
     8    3   29 1    
     9    4    8 ar   
    10    4    9 ar   
    11    4   30 1    
    12    5   10 ar   
    13    5   31 1    
    14    6   12 ar   
    15    6   32 1    
    16    7   11 ar   
    17    7   33 1    
    18    8   11 ar   
    19    8   34 1    
    20    9   21 1    
    21   10   12 ar   
    22   10   22 1    
    23   11   25 1    
    24   12   26 1    
    25   13   14 ar   
    26   13   15 ar   
    27   13   35 1    
    28   14   21 ar   
    29   14   36 1    
    30   15   16 ar   
    31   15   23 2    
    32   16   17 1    
    33   16   20 ar   
    34   17   22 am   BACKBONE|DICT|INTERRES
    35   17   24 2    
    36   18   25 1    
    37   18   37 1    
    38   18   38 1    
    39   18   39 1    
    40   19   26 1    
    41   19   40 1    
    42   19   41 1    
    43   19   42 1    
    44   20   21 ar   
    45   22   43 1    
@<TRIPOS>SUBSTRUCTURE
     1 UNK         1 GROUP             0       ****    0 ROOT    
@<TRIPOS>MOLECULE
ZINC05484162_14
42   44    1
SMALL
USER_CHARGES


@<TRIPOS>ATOM
      1 C1        -11.3697   -5.8141   38.9687 C.ar      1 UNK        -0.1150 
      2 C2        -11.4393   -5.6671   37.5720 C.ar      1 UNK        -0.1150 
      3 C3         -7.3032  -15.1593   36.3272 C.ar      1 UNK        -0.1150 
      4 C4         -7.3300  -12.9049   35.4078 C.ar      1 UNK        -0.1150 
      5 C5         -7.4460  -14.6322   37.6258 C.ar      1 UNK        -0.1150 
      6 C6         -7.4745  -12.3787   36.7059 C.ar      1 UNK        -0.1150 
      7 C7        -10.7600   -6.9521   39.5273 C.ar      1 UNK        -0.1150 
      8 C8        -10.8999   -6.6585   36.7308 C.ar      1 UNK        -0.1150 
      9 C9         -7.2408  -14.2971   35.2145 C.ar      1 UNK        -0.1150 
     10 C10        -7.5260  -13.2346   37.8316 C.ar      1 UNK         0.2000 
     11 C11       -10.2143   -7.9509   38.6865 C.ar      1 UNK         0.0850 
     12 C12       -10.2823   -7.8095   37.2813 C.ar      1 UNK         0.0850 
     13 C13        -7.5164  -12.8681   41.5477 C.ar      1 UNK        -0.1150 
     14 C14        -7.2767  -13.3501   40.3164 C.ar      1 UNK         0.0075 
     15 C15        -8.2309  -11.5889   41.7085 C.ar      1 UNK         0.4700 
     16 C16        -8.6060  -10.9071   40.4181 C.ar      1 UNK         0.4529 
     17 C17        -9.3113   -9.5758   40.3988 C.2       1 UNK         0.3238 
     18 C18        -7.0894  -14.8594   33.8160 C.3       1 UNK        -0.0650 
     19 C19        -9.7978   -8.7202   35.1085 C.3       1 UNK         0.1100 
     20 N20        -8.3216  -11.4681   39.2729 N.2       1 UNK        -0.3551 
     21 N21        -7.6767  -12.6853   39.1431 N.pl3     1 UNK        -0.2441 
     22 N22        -9.5842   -9.1328   39.1537 N.am      1 UNK        -0.3850 
     23 O23        -8.4794  -11.1488   42.8324 O.2       1 UNK        -0.4700 
     24 O24        -9.6064   -8.9515   41.4178 O.2       1 UNK        -0.5000 
     25 O25        -9.7291   -8.8240   36.5227 O.3       1 UNK        -0.2850 
     26 H26       -11.7835   -5.0551   39.6168 H         1 UNK         0.1150 
     27 H27       -11.9081   -4.7923   37.1453 H         1 UNK         0.1150 
     28 H28        -7.2483  -16.2297   36.1912 H         1 UNK         0.1150 
     29 H29        -7.2884  -12.2332   34.5626 H         1 UNK         0.1150 
     30 H30        -7.5146  -15.3225   38.4517 H         1 UNK         0.1150 
     31 H31        -7.5360  -11.3073   36.8285 H         1 UNK         0.1150 
     32 H32       -10.7251   -7.0355   40.6024 H         1 UNK         0.1150 
     33 H33       -10.9726   -6.5103   35.6648 H         1 UNK         0.1150 
     34 H34        -7.1865  -13.3862   42.4348 H         1 UNK         0.1150 
     35 H35        -6.7243  -14.2645   40.1590 H         1 UNK         0.1150 
     36 H36        -8.0470  -14.8357   33.2951 H         1 UNK         0.0600 
     37 H37        -6.3712  -14.2730   33.2421 H         1 UNK         0.0600 
     38 H38        -6.7380  -15.8914   33.8395 H         1 UNK         0.0600 
     39 H39        -9.3293   -9.5971   34.6613 H         1 UNK         0.0300 
     40 H40        -9.2640   -7.8404   34.7468 H         1 UNK         0.0300 
     41 H41       -10.8315   -8.6855   34.7614 H         1 UNK         0.0300 
     42 H42        -9.2758   -9.7536   38.4159 H         1 UNK         0.3000 
@<TRIPOS>BOND
     1    1    2 ar   
     2    1    7 ar   
     3    1   26 1    
     4    2    8 ar   
     5    2   27 1    
     6    3    5 ar   
     7    3    9 ar   
     8    3   28 1    
     9    4    6 ar   
    10    4    9 ar   
    11    4   29 1    
    12    5   10 ar   
    13    5   30 1    
    14    6   10 ar   
    15    6   31 1    
    16    7   11 ar   
    17    7   32 1    
    18    8   12 ar   
    19    8   33 1    
    20    9   18 1    
    21   10   21 1    
    22   11   12 ar   
    23   11   22 1    
    24   12   25 1    
    25   13   14 ar   
    26   13   15 ar   
    27   13   34 1    
    28   14   21 ar   
    29   14   35 1    
    30   15   16 ar   
    31   15   23 2    
    32   16   17 1    
    33   16   20 ar   
    34   17   22 am   BACKBONE|DICT|INTERRES
    35   17   24 2    
    36   18   36 1    
    37   18   37 1    
    38   18   38 1    
    39   19   25 1    
    40   19   39 1    
    41   19   40 1    
    42   19   41 1    
    43   20   21 ar   
    44   22   42 1    
@<TRIPOS>SUBSTRUCTURE
     1 UNK         1 GROUP             0       ****    0 ROOT    
@<TRIPOS>MOLECULE
ZINC05484887_19
43   45    1
SMALL
USER_CHARGES


@<TRIPOS>ATOM
      1 C1        -12.7167  -20.1533   37.7590 C.ar      1 UNK        -0.1150 
      2 C2        -15.1244  -20.0539   37.3983 C.ar      1 UNK        -0.1150 
      3 C3        -12.5210  -20.3982   36.3851 C.ar      1 UNK        -0.1150 
      4 C4        -14.9279  -20.2978   36.0245 C.ar      1 UNK        -0.1150 
      5 C5        -16.1738  -14.6496   38.0373 C.ar      1 UNK        -0.1150 
      6 C6        -17.9228  -16.2956   38.3845 C.ar      1 UNK        -0.1150 
      7 C7        -14.0194  -19.9729   38.2759 C.ar      1 UNK         0.0000 
      8 C8        -16.5563  -15.9484   38.4178 C.ar      1 UNK        -0.1150 
      9 C9        -17.1391  -13.7015   37.6550 C.ar      1 UNK         0.0850 
     10 C10       -18.9096  -15.3719   37.9883 C.ar      1 UNK         0.0850 
     11 C11       -18.5149  -14.0585   37.5906 C.ar      1 UNK         0.0850 
     12 C12       -13.6265  -20.4686   35.5177 C.ar      1 UNK         0.2200 
     13 C13       -14.2174  -19.7172   39.7087 C.2       1 UNK         0.2721 
     14 C14       -15.0549  -18.7737   40.3797 C.2       1 UNK         0.3571 
     15 C15       -15.5122  -16.9467   38.8171 C.2       1 UNK         0.6150 
     16 C16       -17.0148  -11.4793   38.3584 C.3       1 UNK         0.1100 
     17 C17       -21.3084  -15.0353   37.7720 C.3       1 UNK         0.1100 
     18 C18       -19.1902  -12.5441   35.8922 C.3       1 UNK         0.1100 
     19 N19       -13.6285  -20.4751   40.6019 N.2       1 UNK        -0.2850 
     20 N20       -15.0282  -18.9772   41.6713 N.2       1 UNK        -0.2850 
     21 N21       -15.8724  -17.7818   39.7983 N.am      1 UNK        -0.3850 
     22 O22       -14.3938  -16.9263   38.3098 O.2       1 UNK        -0.5000 
     23 O23       -14.1165  -20.0310   41.8428 O.3       1 UNK         0.0258 
     24 O24       -16.6980  -12.4377   37.3594 O.3       1 UNK        -0.2850 
     25 O25       -20.1945  -15.8803   38.0130 O.3       1 UNK        -0.2850 
     26 O26       -19.4509  -13.1488   37.1536 O.3       1 UNK        -0.2850 
     27 F27       -13.4398  -20.7052   34.1986 F         1 UNK        -0.2200 
     28 H28       -11.8625  -20.0977   38.4188 H         1 UNK         0.1150 
     29 H29       -16.1288  -19.9304   37.7742 H         1 UNK         0.1150 
     30 H30       -11.5237  -20.5307   35.9928 H         1 UNK         0.1150 
     31 H31       -15.7726  -20.3557   35.3542 H         1 UNK         0.1150 
     32 H32       -15.1299  -14.3679   38.0544 H         1 UNK         0.1150 
     33 H33       -18.2400  -17.2937   38.6491 H         1 UNK         0.1150 
     34 H34       -18.0907  -11.3702   38.4972 H         1 UNK         0.0300 
     35 H35       -16.6165  -10.5071   38.0687 H         1 UNK         0.0300 
     36 H36       -16.5685  -11.7519   39.3158 H         1 UNK         0.0300 
     37 H37       -21.3331  -14.6940   36.7366 H         1 UNK         0.0300 
     38 H38       -21.3201  -14.1790   38.4474 H         1 UNK         0.0300 
     39 H39       -22.2249  -15.5981   37.9474 H         1 UNK         0.0300 
     40 H40       -20.1363  -12.3474   35.3882 H         1 UNK         0.0300 
     41 H41       -18.5953  -13.1832   35.2371 H         1 UNK         0.0300 
     42 H42       -18.6799  -11.5883   36.0086 H         1 UNK         0.0300 
     43 H43       -16.7345  -17.5747   40.2737 H         1 UNK         0.3000 
@<TRIPOS>BOND
     1    1    3 ar   
     2    1    7 ar   
     3    1   28 1    
     4    2    4 ar   
     5    2    7 ar   
     6    2   29 1    
     7    3   12 ar   
     8    3   30 1    
     9    4   12 ar   
    10    4   31 1    
    11    5    8 ar   
    12    5    9 ar   
    13    5   32 1    
    14    6    8 ar   
    15    6   10 ar   
    16    6   33 1    
    17    7   13 1    
    18    8   15 1    
    19    9   11 ar   
    20    9   24 1    
    21   10   11 ar   
    22   10   25 1    
    23   11   26 1    
    24   12   27 1    
    25   13   14 1    
    26   13   19 2    
    27   14   20 2    
    28   14   21 1    
    29   15   21 am   BACKBONE|DICT|INTERRES
    30   15   22 2    
    31   16   24 1    
    32   16   34 1    
    33   16   35 1    
    34   16   36 1    
    35   17   25 1    
    36   17   37 1    
    37   17   38 1    
    38   17   39 1    
    39   18   26 1    
    40   18   40 1    
    41   18   41 1    
    42   18   42 1    
    43   19   23 1    
    44   20   23 1    
    45   21   43 1    
@<TRIPOS>SUBSTRUCTURE
     1 UNK         1 GROUP             0       ****    0 ROOT    
@<TRIPOS>MOLECULE
ZINC05488595_42
39   41    1
SMALL
USER_CHARGES


@<TRIPOS>ATOM
      1 C1        -11.2755   -5.6669   39.1113 C.ar      1 UNK        -0.1150 
      2 C2        -11.4668   -5.5369   37.7243 C.ar      1 UNK        -0.1150 
      3 C3         -7.7947  -12.9164   35.3140 C.ar      1 UNK        -0.1150 
      4 C4         -7.8016  -12.3694   36.6121 C.ar      1 UNK        -0.1150 
      5 C5        -10.6480   -6.8139   39.6308 C.ar      1 UNK        -0.1150 
      6 C6        -11.0305   -6.5534   36.8539 C.ar      1 UNK        -0.1150 
      7 C7         -7.7479  -14.3119   35.1389 C.ar      1 UNK        -0.1150 
      8 C8         -7.7184  -14.6113   37.5607 C.ar      1 UNK        -0.1150 
      9 C9         -7.7567  -13.2096   37.7512 C.ar      1 UNK         0.2000 
     10 C10       -10.2069   -7.8385   38.7602 C.ar      1 UNK         0.0850 
     11 C11       -10.3967   -7.7139   37.3647 C.ar      1 UNK         0.0850 
     12 C12        -7.7124  -15.1575   36.2628 C.ar      1 UNK         0.1800 
     13 C13        -7.3962  -12.7910   41.4463 C.ar      1 UNK        -0.1150 
     14 C14        -7.2840  -13.2980   40.2067 C.ar      1 UNK         0.0075 
     15 C15        -8.0563  -11.4888   41.6497 C.ar      1 UNK         0.4700 
     16 C16        -8.5298  -10.8159   40.3874 C.ar      1 UNK         0.4529 
     17 C17        -9.1967   -9.4650   40.4100 C.2       1 UNK         0.3238 
     18 C18       -10.1344   -8.6654   35.1715 C.3       1 UNK         0.1100 
     19 N19        -8.3676  -11.4020   39.2306 N.2       1 UNK        -0.3551 
     20 N20        -7.7709  -12.6388   39.0628 N.pl3     1 UNK        -0.2441 
     21 N21        -9.5695   -9.0315   39.1876 N.am      1 UNK        -0.3850 
     22 O22        -8.1868  -11.0246   42.7835 O.2       1 UNK        -0.4700 
     23 O23        -9.3799   -8.8182   41.4409 O.2       1 UNK        -0.5000 
     24 O24        -9.9414   -8.7535   36.5753 O.3       1 UNK        -0.2850 
     25 Cl25       -7.6668  -16.8684   36.0506 Cl        1 UNK        -0.1800 
     26 H26       -11.6099   -4.8885   39.7819 H         1 UNK         0.1150 
     27 H27       -11.9495   -4.6555   37.3276 H         1 UNK         0.1150 
     28 H28        -7.8254  -12.2642   34.4535 H         1 UNK         0.1150 
     29 H29        -7.8333  -11.2950   36.7228 H         1 UNK         0.1150 
     30 H30       -10.5192   -6.8843   40.6996 H         1 UNK         0.1150 
     31 H31       -11.1954   -6.4171   35.7967 H         1 UNK         0.1150 
     32 H32        -7.7437  -14.7360   34.1449 H         1 UNK         0.1150 
     33 H33        -7.7150  -15.2913   38.3977 H         1 UNK         0.1150 
     34 H34        -7.0014  -13.3055   42.3086 H         1 UNK         0.1150 
     35 H35        -6.7743  -14.2311   40.0181 H         1 UNK         0.1150 
     36 H36        -9.7276   -9.5580   34.6966 H         1 UNK         0.0300 
     37 H37        -9.6157   -7.8030   34.7506 H         1 UNK         0.0300 
     38 H38       -11.1938   -8.6111   34.9173 H         1 UNK         0.0300 
     39 H39        -9.3471   -9.6702   38.4347 H         1 UNK         0.3000 
@<TRIPOS>BOND
     1    1    2 ar   
     2    1    5 ar   
     3    1   26 1    
     4    2    6 ar   
     5    2   27 1    
     6    3    4 ar   
     7    3    7 ar   
     8    3   28 1    
     9    4    9 ar   
    10    4   29 1    
    11    5   10 ar   
    12    5   30 1    
    13    6   11 ar   
    14    6   31 1    
    15    7   12 ar   
    16    7   32 1    
    17    8    9 ar   
    18    8   12 ar   
    19    8   33 1    
    20    9   20 1    
    21   10   11 ar   
    22   10   21 1    
    23   11   24 1    
    24   12   25 1    
    25   13   14 ar   
    26   13   15 ar   
    27   13   34 1    
    28   14   20 ar   
    29   14   35 1    
    30   15   16 ar   
    31   15   22 2    
    32   16   17 1    
    33   16   19 ar   
    34   17   21 am   BACKBONE|DICT|INTERRES
    35   17   23 2    
    36   18   24 1    
    37   18   36 1    
    38   18   37 1    
    39   18   38 1    
    40   19   20 ar   
    41   21   39 1    
@<TRIPOS>SUBSTRUCTURE
     1 UNK         1 GROUP             0       ****    0 ROOT    
@<TRIPOS>MOLECULE
ZINC05491885_247
45   47    1
SMALL
USER_CHARGES


@<TRIPOS>ATOM
      1 C1         -3.6185  -11.0089   37.0730 C.ar      1 UNK        -0.1150 
      2 C2         -6.0114  -11.1981   36.7313 C.ar      1 UNK        -0.1150 
      3 C3         -3.3877  -11.7208   35.8797 C.ar      1 UNK        -0.1150 
      4 C4         -5.7885  -11.9109   35.5367 C.ar      1 UNK        -0.1150 
      5 C5         -8.9123   -5.7012   37.6188 C.ar      1 UNK        -0.1150 
      6 C6         -9.2886   -4.5590   36.8944 C.ar      1 UNK        -0.1150 
      7 C7         -7.6794   -4.2870   39.1622 C.ar      1 UNK        -0.1150 
      8 C8         -4.9322  -10.7344   37.5204 C.ar      1 UNK         0.0000 
      9 C9         -4.4736  -12.1757   35.1077 C.ar      1 UNK        -0.1150 
     10 C10        -8.1164   -5.5732   38.7698 C.ar      1 UNK         0.0850 
     11 C11        -8.8798   -3.2692   37.2861 C.ar      1 UNK         0.0850 
     12 C12        -8.0480   -3.1215   38.4379 C.ar      1 UNK         0.0850 
     13 C13        -5.1677   -9.9839   38.7746 C.ar      1 UNK         0.5870 
     14 C14        -7.3813   -6.9316   40.7347 C.2       1 UNK         0.5000 
     15 C15        -4.2241  -12.9386   33.8231 C.3       1 UNK        -0.0650 
     16 C16        -9.1638   -0.8988   36.8148 C.3       1 UNK         0.1100 
     17 C17        -6.7870   -1.7280   39.9626 C.3       1 UNK         0.1100 
     18 C18        -7.0249   -8.3533   41.1797 C.3       1 UNK         0.0025 
     19 N19        -4.1542   -9.6128   39.6077 N.2       1 UNK        -0.3710 
     20 N20        -6.3771   -9.6097   39.1651 N.2       1 UNK        -0.5708 
     21 N21        -4.7188   -8.9778   40.5840 N.2       1 UNK        -0.2368 
     22 N22        -6.0424   -8.9790   40.3127 N.pl3     1 UNK         0.4691 
     23 N23        -7.7513   -6.7671   39.4492 N.am      1 UNK        -0.3850 
     24 O24        -7.3688   -6.0262   41.5674 O.2       1 UNK        -0.5000 
     25 O25        -9.3447   -2.2610   36.4629 O.3       1 UNK        -0.2850 
     26 O26        -7.6102   -1.8656   38.8124 O.3       1 UNK        -0.2850 
     27 H27        -2.7720  -10.6672   37.6515 H         1 UNK         0.1150 
     28 H28        -7.0268  -11.0068   37.0458 H         1 UNK         0.1150 
     29 H29        -2.3731  -11.9142   35.5615 H         1 UNK         0.1150 
     30 H30        -6.6321  -12.2523   34.9539 H         1 UNK         0.1150 
     31 H31        -9.2505   -6.6706   37.2833 H         1 UNK         0.1150 
     32 H32        -9.9088   -4.6683   36.0171 H         1 UNK         0.1150 
     33 H33        -7.0396   -4.2058   40.0248 H         1 UNK         0.1150 
     34 H34        -5.1053  -13.5061   33.5227 H         1 UNK         0.0600 
     35 H35        -3.9702  -12.2478   33.0189 H         1 UNK         0.0600 
     36 H36        -3.3990  -13.6405   33.9469 H         1 UNK         0.0600 
     37 H37        -9.7076   -0.2746   36.1062 H         1 UNK         0.0300 
     38 H38        -8.1140   -0.6088   36.7598 H         1 UNK         0.0300 
     39 H39        -9.5596   -0.6820   37.8078 H         1 UNK         0.0300 
     40 H40        -6.5524   -0.6742   40.1106 H         1 UNK         0.0300 
     41 H41        -5.8419   -2.2595   39.8433 H         1 UNK         0.0300 
     42 H42        -7.2926   -2.0809   40.8627 H         1 UNK         0.0300 
     43 H43        -6.6312   -8.3301   42.1968 H         1 UNK         0.0600 
     44 H44        -7.9253   -8.9670   41.1993 H         1 UNK         0.0600 
     45 H45        -7.7953   -7.6137   38.8988 H         1 UNK         0.3000 
@<TRIPOS>BOND
     1    1    3 ar   
     2    1    8 ar   
     3    1   27 1    
     4    2    4 ar   
     5    2    8 ar   
     6    2   28 1    
     7    3    9 ar   
     8    3   29 1    
     9    4    9 ar   
    10    4   30 1    
    11    5    6 ar   
    12    5   10 ar   
    13    5   31 1    
    14    6   11 ar   
    15    6   32 1    
    16    7   10 ar   
    17    7   12 ar   
    18    7   33 1    
    19    8   13 1    
    20    9   15 1    
    21   10   23 1    
    22   11   12 ar   
    23   11   25 1    
    24   12   26 1    
    25   13   19 ar   
    26   13   20 ar   
    27   14   18 1    
    28   14   23 am   BACKBONE|DICT|INTERRES
    29   14   24 2    
    30   15   34 1    
    31   15   35 1    
    32   15   36 1    
    33   16   25 1    
    34   16   37 1    
    35   16   38 1    
    36   16   39 1    
    37   17   26 1    
    38   17   40 1    
    39   17   41 1    
    40   17   42 1    
    41   18   22 1    
    42   18   43 1    
    43   18   44 1    
    44   19   21 ar   
    45   20   22 ar   
    46   21   22 ar   
    47   23   45 1    
@<TRIPOS>SUBSTRUCTURE
     1 UNK         1 GROUP             0       ****    0 ROOT    
@<TRIPOS>MOLECULE
ZINC05558893_217
38   39    1
SMALL
USER_CHARGES


@<TRIPOS>ATOM
      1 C1        -10.6048   -8.6647   38.1912 C.ar      1 UNK        -0.1150 
      2 C2         -7.4371  -11.8759   36.5337 C.ar      1 UNK        -0.1150 
      3 C3        -10.9853   -7.8468   37.1148 C.ar      1 UNK        -0.1150 
      4 C4         -6.9124  -12.4816   35.3754 C.ar      1 UNK        -0.1150 
      5 C5         -9.7468   -6.7081   39.3444 C.ar      1 UNK        -0.1150 
      6 C6         -6.6153  -14.5682   36.5953 C.ar      1 UNK        -0.1150 
      7 C7         -9.9691   -8.1014   39.3168 C.ar      1 UNK        -0.1150 
      8 C8         -7.5521  -12.6131   37.7360 C.ar      1 UNK         0.2000 
      9 C9        -10.7539   -6.4573   37.1262 C.ar      1 UNK         0.0850 
     10 C10       -10.1265   -5.8658   38.2655 C.ar      1 UNK         0.0850 
     11 C11        -6.5004  -13.8262   35.4061 C.ar      1 UNK         0.1800 
     12 C12        -7.1391  -13.9666   37.7552 C.ar      1 UNK         0.1800 
     13 C13        -9.0891  -10.3249   40.2724 C.2       1 UNK        -0.1150 
     14 C14        -8.4986  -10.7568   39.1410 C.2       1 UNK        -0.0970 
     15 C15        -9.5370   -8.9293   40.4839 C.2       1 UNK         0.5850 
     16 C16       -10.9994   -4.4130   35.8249 C.3       1 UNK         0.1100 
     17 C17        -9.3268   -3.9190   39.4585 C.3       1 UNK         0.1100 
     18 N18        -8.0680  -12.0582   38.9171 N.pl3     1 UNK        -0.5717 
     19 O19        -9.5205   -8.4523   41.6174 O.2       1 UNK        -0.4700 
     20 O20       -11.1875   -5.8098   35.9844 O.3       1 UNK        -0.2850 
     21 O21        -9.9019   -4.5035   38.2983 O.3       1 UNK        -0.2850 
     22 Cl22       -5.8570  -14.5637   33.9868 Cl        1 UNK        -0.1800 
     23 Cl23       -7.2726  -14.9030   39.2034 Cl        1 UNK        -0.1800 
     24 H24       -10.8163   -9.7235   38.1457 H         1 UNK         0.1150 
     25 H25        -7.7470  -10.8451   36.4706 H         1 UNK         0.1150 
     26 H26       -11.4711   -8.2899   36.2578 H         1 UNK         0.1150 
     27 H27        -6.8261  -11.9136   34.4603 H         1 UNK         0.1150 
     28 H28        -9.2690   -6.3041   40.2239 H         1 UNK         0.1150 
     29 H29        -6.3008  -15.6006   36.6186 H         1 UNK         0.1150 
     30 H30        -9.2425  -11.0019   41.0992 H         1 UNK         0.1150 
     31 H31        -8.3162  -10.0743   38.3251 H         1 UNK         0.1150 
     32 H32       -11.3867   -4.1127   34.8514 H         1 UNK         0.0300 
     33 H33        -9.9424   -4.1449   35.8485 H         1 UNK         0.0300 
     34 H34       -11.5460   -3.8455   36.5789 H         1 UNK         0.0300 
     35 H35        -9.2521   -2.8409   39.3161 H         1 UNK         0.0300 
     36 H36        -8.3194   -4.2959   39.6392 H         1 UNK         0.0300 
     37 H37        -9.9447   -4.0905   40.3412 H         1 UNK         0.0300 
     38 H38        -8.1263  -12.7207   39.6827 H         1 UNK         0.3537 
@<TRIPOS>BOND
     1    1    3 ar   
     2    1    7 ar   
     3    1   24 1    
     4    2    4 ar   
     5    2    8 ar   
     6    2   25 1    
     7    3    9 ar   
     8    3   26 1    
     9    4   11 ar   
    10    4   27 1    
    11    5    7 ar   
    12    5   10 ar   
    13    5   28 1    
    14    6   11 ar   
    15    6   12 ar   
    16    6   29 1    
    17    7   15 1    
    18    8   12 ar   
    19    8   18 1    
    20    9   10 ar   
    21    9   20 1    
    22   10   21 1    
    23   11   22 1    
    24   12   23 1    
    25   13   14 2    
    26   13   15 1    
    27   13   30 1    
    28   14   18 1    
    29   14   31 1    
    30   15   19 2    
    31   16   20 1    
    32   16   32 1    
    33   16   33 1    
    34   16   34 1    
    35   17   21 1    
    36   17   35 1    
    37   17   36 1    
    38   17   37 1    
    39   18   38 1    
@<TRIPOS>SUBSTRUCTURE
     1 UNK         1 GROUP             0       ****    0 ROOT    
@<TRIPOS>MOLECULE
ZINC05616540_125
46   48    1
SMALL
USER_CHARGES


@<TRIPOS>ATOM
      1 C1         -4.8897  -11.6316   35.0758 C.ar      1 UNK        -0.1150 
      2 C2         -5.7632  -12.3322   35.9285 C.ar      1 UNK        -0.1150 
      3 C3         -4.2682  -10.4517   35.5252 C.ar      1 UNK        -0.1150 
      4 C4         -6.0164  -11.8535   37.2293 C.ar      1 UNK        -0.1150 
      5 C5         -4.5210   -9.9738   36.8260 C.ar      1 UNK        -0.1150 
      6 C6         -8.3883   -4.9159   36.6932 C.ar      1 UNK        -0.1150 
      7 C7         -7.6190   -4.0215   39.2382 C.ar      1 UNK        -0.1150 
      8 C8         -6.3697   -9.7273   41.3579 C.2       1 UNK        -0.3376 
      9 C9         -5.3973  -10.6685   37.6912 C.ar      1 UNK         0.0000 
     10 C10        -7.6208   -5.7569   37.5232 C.ar      1 UNK        -0.1150 
     11 C11        -7.2368   -5.3140   38.8098 C.ar      1 UNK         0.0850 
     12 C12        -8.7810   -3.6255   37.1253 C.ar      1 UNK         0.0850 
     13 C13        -8.3948   -3.1756   38.4073 C.ar      1 UNK         0.0850 
     14 C14        -5.6767   -8.6831   40.7975 C.2       1 UNK         0.1693 
     15 C15        -5.6544  -10.1469   39.0361 C.2       1 UNK         0.3009 
     16 C16        -6.2285   -6.2195   40.9281 C.2       1 UNK         0.5000 
     17 C17        -7.2236   -7.1366   37.0195 C.3       1 UNK        -0.0650 
     18 C18        -9.9357   -3.1743   35.0624 C.3       1 UNK         0.1100 
     19 C19        -8.4899   -1.4484   40.0805 C.3       1 UNK         0.1100 
     20 C20        -5.3405   -7.3615   41.4419 C.3       1 UNK        -0.0050 
     21 N21        -5.2678   -8.9457   39.4829 N.2       1 UNK        -0.4803 
     22 N22        -6.4435   -6.1896   39.6006 N.am      1 UNK        -0.3850 
     23 O23        -6.6745   -5.3989   41.7286 O.2       1 UNK        -0.5000 
     24 O24        -9.5315   -2.7586   36.3575 O.3       1 UNK        -0.2850 
     25 O25        -8.8025   -1.9086   38.7744 O.3       1 UNK        -0.2850 
     26 S26        -6.5480  -11.0624   40.2519 S.3       1 UNK         0.0010 
     27 H27        -4.6954  -12.0000   34.0786 H         1 UNK         0.1150 
     28 H28        -6.2406  -13.2384   35.5845 H         1 UNK         0.1150 
     29 H29        -3.5951   -9.9137   34.8732 H         1 UNK         0.1150 
     30 H30        -6.6944  -12.4076   37.8609 H         1 UNK         0.1150 
     31 H31        -4.0345   -9.0687   37.1602 H         1 UNK         0.1150 
     32 H32        -8.6700   -5.2807   35.7183 H         1 UNK         0.1150 
     33 H33        -7.3042   -3.6741   40.2075 H         1 UNK         0.1150 
     34 H34        -6.7939   -9.7915   42.3497 H         1 UNK         0.2317 
     35 H35        -6.1383   -7.2278   36.9647 H         1 UNK         0.0600 
     36 H36        -7.6026   -7.9114   37.6874 H         1 UNK         0.0600 
     37 H37        -7.6240   -7.3320   36.0247 H         1 UNK         0.0600 
     38 H38       -10.5133   -2.3770   34.5947 H         1 UNK         0.0300 
     39 H39       -10.5723   -4.0588   35.1083 H         1 UNK         0.0300 
     40 H40        -9.0764   -3.3771   34.4222 H         1 UNK         0.0300 
     41 H41        -8.9145   -0.4548   40.2223 H         1 UNK         0.0300 
     42 H42        -7.4122   -1.3691   40.2285 H         1 UNK         0.0300 
     43 H43        -8.9141   -2.1000   40.8457 H         1 UNK         0.0300 
     44 H44        -5.4476   -7.4261   42.5251 H         1 UNK         0.0600 
     45 H45        -4.2997   -7.0972   41.2541 H         1 UNK         0.0600 
     46 H46        -6.0517   -6.9874   39.1148 H         1 UNK         0.3000 
@<TRIPOS>BOND
     1    1    2 ar   
     2    1    3 ar   
     3    1   27 1    
     4    2    4 ar   
     5    2   28 1    
     6    3    5 ar   
     7    3   29 1    
     8    4    9 ar   
     9    4   30 1    
    10    5    9 ar   
    11    5   31 1    
    12    6   10 ar   
    13    6   12 ar   
    14    6   32 1    
    15    7   11 ar   
    16    7   13 ar   
    17    7   33 1    
    18    8   14 2    
    19    8   26 1    
    20    8   34 1    
    21    9   15 1    
    22   10   11 ar   
    23   10   17 1    
    24   11   22 1    
    25   12   13 ar   
    26   12   24 1    
    27   13   25 1    
    28   14   20 1    
    29   14   21 1    
    30   15   21 2    
    31   15   26 1    
    32   16   20 1    
    33   16   22 am   BACKBONE|DICT|INTERRES
    34   16   23 2    
    35   17   35 1    
    36   17   36 1    
    37   17   37 1    
    38   18   24 1    
    39   18   38 1    
    40   18   39 1    
    41   18   40 1    
    42   19   25 1    
    43   19   41 1    
    44   19   42 1    
    45   19   43 1    
    46   20   44 1    
    47   20   45 1    
    48   22   46 1    
@<TRIPOS>SUBSTRUCTURE
     1 UNK         1 GROUP             0       ****    0 ROOT    
@<TRIPOS>MOLECULE
ZINC05628626_263
45   48    1
SMALL
USER_CHARGES


@<TRIPOS>ATOM
      1 C1         -5.9615   -9.5405   35.3343 C.ar      1 UNK        -0.1509 
      2 C2         -6.7648  -10.6873   35.5309 C.ar      1 UNK        -0.1840 
      3 C3         -5.1421   -9.0475   36.3759 C.ar      1 UNK        -0.3715 
      4 C4         -6.7683  -11.3427   36.7799 C.ar      1 UNK        -0.3016 
      5 C5         -7.7043   -5.1293   39.3351 C.ar      1 UNK        -0.1150 
      6 C6         -8.3710   -7.2604   38.3726 C.ar      1 UNK        -0.1150 
      7 C7         -7.7423   -6.5351   39.4030 C.ar      1 UNK         0.0000 
      8 C8         -5.1209   -9.6984   37.6269 C.ar      1 UNK         0.4773 
      9 C9         -5.9477  -10.8325   37.7989 C.ar      1 UNK         0.2571 
     10 C10        -8.2800   -4.4295   38.2463 C.ar      1 UNK         0.0850 
     11 C11        -8.9561   -6.5880   37.2743 C.ar      1 UNK         0.0850 
     12 C12        -8.8885   -5.1768   37.1965 C.ar      1 UNK         0.0850 
     13 C13        -7.1262   -7.2213   40.5362 C.2       1 UNK         0.5614 
     14 C14        -6.3810   -8.8336   41.6762 C.2       1 UNK         0.4464 
     15 C15        -4.8658  -10.4196   39.6057 C.2       1 UNK         0.7031 
     16 C16        -7.7661   -2.3035   39.2739 C.3       1 UNK         0.1100 
     17 C17        -9.8515   -8.6306   36.3714 C.3       1 UNK         0.1100 
     18 C18        -8.9050   -3.4360   35.5314 C.3       1 UNK         0.1100 
     19 C19        -6.0147  -10.2407   42.0166 C.3       1 UNK         0.1625 
     20 N20        -4.4301   -9.4492   38.7941 N.2       1 UNK        -0.6626 
     21 N21        -6.5952   -6.6854   41.6403 N.2       1 UNK        -0.3751 
     22 N22        -6.1091   -7.7365   42.3828 N.2       1 UNK        -0.3751 
     23 O23        -5.7869  -11.2903   39.0912 O.3       1 UNK        -0.3739 
     24 O24        -7.0479   -8.5797   40.5199 O.3       1 UNK        -0.3726 
     25 O25        -8.2927   -3.0495   38.1854 O.3       1 UNK        -0.2850 
     26 O26        -9.5948   -7.2414   36.2397 O.3       1 UNK        -0.2850 
     27 O27        -9.4769   -4.6133   36.0817 O.3       1 UNK        -0.2850 
     28 S28        -4.4098  -10.6658   41.2792 S.3       1 UNK        -0.3200 
     29 H29        -5.9715   -9.0362   34.3766 H         1 UNK         0.1601 
     30 H30        -7.3818  -11.0564   34.7217 H         1 UNK         0.1678 
     31 H31        -4.5248   -8.1744   36.2254 H         1 UNK         0.2208 
     32 H32        -7.3760  -12.2180   36.9535 H         1 UNK         0.2108 
     33 H33        -7.2226   -4.6049   40.1461 H         1 UNK         0.1150 
     34 H34        -8.3918   -8.3365   38.4387 H         1 UNK         0.1150 
     35 H35        -7.8964   -1.2399   39.0750 H         1 UNK         0.0300 
     36 H36        -6.6982   -2.4846   39.4032 H         1 UNK         0.0300 
     37 H37        -8.2894   -2.5287   40.2044 H         1 UNK         0.0300 
     38 H38       -10.4214   -8.9746   35.5084 H         1 UNK         0.0300 
     39 H39       -10.4408   -8.8443   37.2639 H         1 UNK         0.0300 
     40 H40        -8.9269   -9.2045   36.4044 H         1 UNK         0.0300 
     41 H41        -9.1469   -3.3865   34.4701 H         1 UNK         0.0300 
     42 H42        -7.8174   -3.4228   35.6203 H         1 UNK         0.0300 
     43 H43        -9.3193   -2.5424   35.9988 H         1 UNK         0.0300 
     44 H44        -5.9578  -10.3460   43.0996 H         1 UNK         0.0600 
     45 H45        -6.7874  -10.9186   41.6539 H         1 UNK         0.0600 
@<TRIPOS>BOND
     1    1    2 ar   
     2    1    3 ar   
     3    1   29 1    
     4    2    4 ar   
     5    2   30 1    
     6    3    8 ar   
     7    3   31 1    
     8    4    9 ar   
     9    4   32 1    
    10    5    7 ar   
    11    5   10 ar   
    12    5   33 1    
    13    6    7 ar   
    14    6   11 ar   
    15    6   34 1    
    16    7   13 1    
    17    8    9 ar   
    18    8   20 1    
    19    9   23 1    
    20   10   12 ar   
    21   10   25 1    
    22   11   12 ar   
    23   11   26 1    
    24   12   27 1    
    25   13   21 2    
    26   13   24 1    
    27   14   19 1    
    28   14   22 2    
    29   14   24 1    
    30   15   20 2    
    31   15   23 1    
    32   15   28 1    
    33   16   25 1    
    34   16   35 1    
    35   16   36 1    
    36   16   37 1    
    37   17   26 1    
    38   17   38 1    
    39   17   39 1    
    40   17   40 1    
    41   18   27 1    
    42   18   41 1    
    43   18   42 1    
    44   18   43 1    
    45   19   28 1    
    46   19   44 1    
    47   19   45 1    
    48   21   22 1    
@<TRIPOS>SUBSTRUCTURE
     1 UNK         1 GROUP             0       ****    0 ROOT    
@<TRIPOS>MOLECULE
ZINC05636006_115
35   36    1
SMALL
USER_CHARGES


@<TRIPOS>ATOM
      1 C1         -7.0033  -13.9908   36.0194 C.2       1 UNK        -0.0738 
      2 C2        -10.5887   -8.7393   38.2479 C.ar      1 UNK        -0.1150 
      3 C3        -11.2668   -7.9661   37.2910 C.ar      1 UNK        -0.1150 
      4 C4         -7.7683  -13.9501   37.2236 C.2       1 UNK        -0.0738 
      5 C5         -9.7470   -6.6993   39.2608 C.ar      1 UNK        -0.1150 
      6 C6         -6.5481  -12.7556   35.6356 C.2       1 UNK        -0.3255 
      7 C7         -9.8149   -8.1103   39.2466 C.ar      1 UNK        -0.1150 
      8 C8        -11.1970   -6.5598   37.2937 C.ar      1 UNK         0.0850 
      9 C9        -10.4317   -5.9034   38.3043 C.ar      1 UNK         0.0850 
     10 C10        -7.8861  -12.6854   37.7414 C.2       1 UNK        -0.1787 
     11 C11        -9.0656   -8.8830   40.2838 C.2       1 UNK         0.5370 
     12 C12        -8.5964  -12.2605   38.9472 C.2       1 UNK         0.6250 
     13 C13       -11.7409   -4.5809   35.9913 C.3       1 UNK         0.1100 
     14 C14        -9.6429   -3.8777   39.3662 C.3       1 UNK         0.1100 
     15 C15        -9.2002  -10.4057   40.2974 C.3       1 UNK         0.2380 
     16 O16        -8.3596   -8.3461   41.1381 O.2       1 UNK        -0.4700 
     17 O17        -9.2154  -13.0504   39.6602 O.2       1 UNK        -0.4300 
     18 O18       -11.9186   -5.9583   36.2804 O.3       1 UNK        -0.2850 
     19 O19       -10.3832   -4.5235   38.3399 O.3       1 UNK        -0.2850 
     20 O20        -8.5180  -10.9476   39.1791 O.3       1 UNK        -0.3300 
     21 S21        -7.0511  -11.5103   36.7485 S.3       1 UNK         0.0328 
     22 H22        -6.8181  -14.9125   35.4861 H         1 UNK         0.1211 
     23 H23       -10.6738   -9.8138   38.1855 H         1 UNK         0.1150 
     24 H24       -11.8511   -8.4593   36.5279 H         1 UNK         0.1150 
     25 H25        -8.2039  -14.8341   37.6672 H         1 UNK         0.1211 
     26 H26        -9.1528   -6.2391   40.0355 H         1 UNK         0.1150 
     27 H27        -5.9509  -12.4975   34.7722 H         1 UNK         0.2618 
     28 H28       -12.2534   -4.3457   35.0589 H         1 UNK         0.0300 
     29 H29       -10.6886   -4.3279   35.8560 H         1 UNK         0.0300 
     30 H30       -12.1785   -3.9522   36.7669 H         1 UNK         0.0300 
     31 H31        -9.7289   -2.7981   39.2437 H         1 UNK         0.0300 
     32 H32        -8.5828   -4.1296   39.3140 H         1 UNK         0.0300 
     33 H33       -10.0291   -4.1265   40.3555 H         1 UNK         0.0300 
     34 H34       -10.2558  -10.6797   40.2826 H         1 UNK         0.0300 
     35 H35        -8.7714  -10.7998   41.2197 H         1 UNK         0.0300 
@<TRIPOS>BOND
     1    1    4 1    
     2    1    6 2    
     3    1   22 1    
     4    2    3 ar   
     5    2    7 ar   
     6    2   23 1    
     7    3    8 ar   
     8    3   24 1    
     9    4   10 2    
    10    4   25 1    
    11    5    7 ar   
    12    5    9 ar   
    13    5   26 1    
    14    6   21 1    
    15    6   27 1    
    16    7   11 1    
    17    8    9 ar   
    18    8   18 1    
    19    9   19 1    
    20   10   12 1    
    21   10   21 1    
    22   11   15 1    
    23   11   16 2    
    24   12   17 2    
    25   12   20 1    
    26   13   18 1    
    27   13   28 1    
    28   13   29 1    
    29   13   30 1    
    30   14   19 1    
    31   14   31 1    
    32   14   32 1    
    33   14   33 1    
    34   15   20 1    
    35   15   34 1    
    36   15   35 1    
@<TRIPOS>SUBSTRUCTURE
     1 UNK         1 GROUP             0       ****    0 ROOT    
@<TRIPOS>MOLECULE
ZINC05654175_92
41   42    1
SMALL
USER_CHARGES


@<TRIPOS>ATOM
      1 C1         -6.7905  -13.4343   36.0783 C.ar      1 UNK        -0.1150 
      2 C2         -7.7317  -14.3764   38.1134 C.ar      1 UNK        -0.1150 
      3 C3        -10.1518   -8.7196   37.7569 C.ar      1 UNK        -0.1150 
      4 C4         -7.0046  -12.1382   36.5862 C.ar      1 UNK        -0.1150 
      5 C5         -7.9475  -13.0792   38.6193 C.ar      1 UNK        -0.1150 
      6 C6        -10.9698   -7.9325   36.9297 C.ar      1 UNK        -0.1150 
      7 C7         -9.6113   -6.7425   39.0580 C.ar      1 UNK        -0.1150 
      8 C8         -7.1535  -14.5702   36.8390 C.ar      1 UNK        -0.1150 
      9 C9         -9.4596   -8.1289   38.8351 C.ar      1 UNK        -0.1150 
     10 C10        -7.5843  -11.9442   37.8544 C.ar      1 UNK         0.0850 
     11 C11       -11.1227   -6.5488   37.1420 C.ar      1 UNK         0.0850 
     12 C12       -10.4336   -5.9324   38.2306 C.ar      1 UNK         0.0850 
     13 C13        -6.9407  -15.9593   36.3383 C.2       1 UNK         0.5850 
     14 C14        -8.5753   -8.9187   39.7445 C.2       1 UNK         0.5370 
     15 C15        -6.3374  -16.1307   34.9487 C.3       1 UNK        -0.1800 
     16 C16       -12.1266   -4.5237   36.2369 C.3       1 UNK         0.1100 
     17 C17        -9.8468   -3.9649   39.5107 C.3       1 UNK         0.1100 
     18 C18        -8.4345  -10.4235   39.4980 C.3       1 UNK         0.1880 
     19 O19        -7.2289  -16.9643   36.9858 O.2       1 UNK        -0.4700 
     20 O20        -7.9739   -8.4175   40.6955 O.2       1 UNK        -0.4700 
     21 O21       -11.9596   -5.9322   36.2309 O.3       1 UNK        -0.2850 
     22 O22       -10.5829   -4.5788   38.4619 O.3       1 UNK        -0.2850 
     23 O23        -7.7570  -10.6433   38.2669 O.3       1 UNK        -0.2850 
     24 H24        -6.3436  -13.5332   35.1004 H         1 UNK         0.1150 
     25 H25        -8.0133  -15.2309   38.7139 H         1 UNK         0.1150 
     26 H26       -10.0667   -9.7738   37.5375 H         1 UNK         0.1150 
     27 H27        -6.7218  -11.2788   35.9953 H         1 UNK         0.1150 
     28 H28        -8.3886  -12.9876   39.6002 H         1 UNK         0.1150 
     29 H29       -11.4919   -8.3961   36.1054 H         1 UNK         0.1150 
     30 H30        -9.0747   -6.3136   39.8904 H         1 UNK         0.1150 
     31 H31        -6.2505  -17.1896   34.7069 H         1 UNK         0.0600 
     32 H32        -5.3434  -15.6867   34.9084 H         1 UNK         0.0600 
     33 H33        -6.9714  -15.6582   34.1991 H         1 UNK         0.0600 
     34 H34       -12.7532   -4.2382   35.3923 H         1 UNK         0.0300 
     35 H35       -11.1748   -4.0034   36.1236 H         1 UNK         0.0300 
     36 H36       -12.6315   -4.1860   37.1424 H         1 UNK         0.0300 
     37 H37       -10.0655   -2.8973   39.5234 H         1 UNK         0.0300 
     38 H38        -8.7715   -4.0770   39.3638 H         1 UNK         0.0300 
     39 H39       -10.1259   -4.3677   40.4851 H         1 UNK         0.0300 
     40 H40        -9.4243  -10.8808   39.4841 H         1 UNK         0.0300 
     41 H41        -7.8693  -10.8659   40.3191 H         1 UNK         0.0300 
@<TRIPOS>BOND
     1    1    4 ar   
     2    1    8 ar   
     3    1   24 1    
     4    2    5 ar   
     5    2    8 ar   
     6    2   25 1    
     7    3    6 ar   
     8    3    9 ar   
     9    3   26 1    
    10    4   10 ar   
    11    4   27 1    
    12    5   10 ar   
    13    5   28 1    
    14    6   11 ar   
    15    6   29 1    
    16    7    9 ar   
    17    7   12 ar   
    18    7   30 1    
    19    8   13 1    
    20    9   14 1    
    21   10   23 1    
    22   11   12 ar   
    23   11   21 1    
    24   12   22 1    
    25   13   15 1    
    26   13   19 2    
    27   14   18 1    
    28   14   20 2    
    29   15   31 1    
    30   15   32 1    
    31   15   33 1    
    32   16   21 1    
    33   16   34 1    
    34   16   35 1    
    35   16   36 1    
    36   17   22 1    
    37   17   37 1    
    38   17   38 1    
    39   17   39 1    
    40   18   23 1    
    41   18   40 1    
    42   18   41 1    
@<TRIPOS>SUBSTRUCTURE
     1 UNK         1 GROUP             0       ****    0 ROOT    
@<TRIPOS>MOLECULE
ZINC05675445_91
49   51    1
SMALL
USER_CHARGES


@<TRIPOS>ATOM
      1 C1        -27.3323  -46.5010   37.6180 C.ar      1 UNK        -0.4470 
      2 C2        -28.5023  -47.2807   37.6665 C.ar      1 UNK         0.2270 
      3 C3        -36.3893  -49.0620   38.9226 C.ar      1 UNK        -0.1150 
      4 C4        -35.7649  -47.5973   37.0901 C.ar      1 UNK        -0.1150 
      5 C5        -27.4579  -45.1040   37.5220 C.ar      1 UNK         0.4730 
      6 C6        -29.7692  -45.2277   37.5292 C.ar      1 UNK         0.4730 
      7 C7        -29.7512  -46.6339   37.6080 C.ar      1 UNK        -0.2920 
      8 C8        -35.4314  -48.2452   38.2953 C.ar      1 UNK        -0.1150 
      9 C9        -37.6532  -49.2897   38.3261 C.ar      1 UNK         0.0850 
     10 C10       -37.0117  -47.7957   36.4711 C.ar      1 UNK         0.0850 
     11 C11       -37.9560  -48.6796   37.0757 C.ar      1 UNK         0.0850 
     12 C12       -31.0230  -47.4043   37.6605 C.ar      1 UNK         0.4815 
     13 C13       -32.6159  -48.9066   37.2060 C.ar      1 UNK         0.5205 
     14 C14       -28.4703  -50.1635   35.6430 C.2       1 UNK        -0.2300 
     15 C15       -29.7836  -50.0813   35.9023 C.2       1 UNK        -0.1150 
     16 C16       -34.1019  -48.0020   38.9565 C.2       1 UNK         0.6150 
     17 C17       -38.3496  -50.6658   40.1824 C.3       1 UNK         0.1100 
     18 C18       -38.4388  -47.0193   34.6631 C.3       1 UNK         0.1100 
     19 C19       -39.5178  -50.2791   36.2609 C.3       1 UNK         0.1100 
     20 C20       -30.6295  -48.8472   35.6463 C.3       1 UNK        -0.0703 
     21 N21       -28.6492  -44.4769   37.4775 N.ar      1 UNK        -0.6780 
     22 N22       -31.9557  -47.1694   38.5133 N.2       1 UNK        -0.3590 
     23 N23       -31.4054  -48.4362   36.8275 N.pl3     1 UNK        -0.2947 
     24 N24       -32.9536  -48.0596   38.2263 N.pl3     1 UNK         0.0782 
     25 O25       -34.0960  -47.7266   40.1588 O.2       1 UNK        -0.5000 
     26 O26       -38.6241  -50.0701   38.9228 O.3       1 UNK        -0.2850 
     27 O27       -37.1684  -47.0954   35.2898 O.3       1 UNK        -0.2850 
     28 O28       -39.1667  -48.9162   36.4635 O.3       1 UNK        -0.2850 
     29 S29       -33.3934  -50.2518   36.5602 S.2       1 UNK        -0.4762 
     30 H30       -26.3559  -46.9613   37.6591 H         1 UNK         0.1550 
     31 H31       -28.4374  -48.3547   37.7559 H         1 UNK         0.0650 
     32 H32       -36.1239  -49.5068   39.8700 H         1 UNK         0.1150 
     33 H33       -35.0571  -46.9315   36.6182 H         1 UNK         0.1150 
     34 H34       -26.5808  -44.4749   37.4820 H         1 UNK         0.0120 
     35 H35       -30.7037  -44.6865   37.4934 H         1 UNK         0.0120 
     36 H36       -27.9220  -51.0739   35.8391 H         1 UNK         0.1150 
     37 H37       -27.9227  -49.3289   35.2288 H         1 UNK         0.1150 
     38 H38       -30.2952  -50.9452   36.3058 H         1 UNK         0.1150 
     39 H39       -37.5074  -51.3565   40.1222 H         1 UNK         0.0300 
     40 H40       -38.1496  -49.9128   40.9459 H         1 UNK         0.0300 
     41 H41       -39.2198  -51.2373   40.5050 H         1 UNK         0.0300 
     42 H42       -39.2108  -46.6752   35.3526 H         1 UNK         0.0300 
     43 H43       -38.3895  -46.2988   33.8471 H         1 UNK         0.0300 
     44 H44       -38.7267  -47.9773   34.2295 H         1 UNK         0.0300 
     45 H45       -38.6463  -50.9342   36.2087 H         1 UNK         0.0300 
     46 H46       -40.0565  -50.3727   35.3183 H         1 UNK         0.0300 
     47 H47       -40.1800  -50.6332   37.0509 H         1 UNK         0.0300 
     48 H48       -29.9974  -48.0302   35.2959 H         1 UNK         0.0600 
     49 H49       -31.3089  -49.0641   34.8202 H         1 UNK         0.0600 
@<TRIPOS>BOND
     1    1    2 ar   
     2    1    5 ar   
     3    1   30 1    
     4    2    7 ar   
     5    2   31 1    
     6    3    8 ar   
     7    3    9 ar   
     8    3   32 1    
     9    4    8 ar   
    10    4   10 ar   
    11    4   33 1    
    12    5   21 ar   
    13    5   34 1    
    14    6    7 ar   
    15    6   21 ar   
    16    6   35 1    
    17    7   12 1    
    18    8   16 1    
    19    9   11 ar   
    20    9   26 1    
    21   10   11 ar   
    22   10   27 1    
    23   11   28 1    
    24   12   22 ar   
    25   12   23 ar   
    26   13   23 ar   
    27   13   24 ar   
    28   13   29 2    
    29   14   15 2    
    30   14   36 1    
    31   14   37 1    
    32   15   20 1    
    33   15   38 1    
    34   16   24 1    
    35   16   25 2    
    36   17   26 1    
    37   17   39 1    
    38   17   40 1    
    39   17   41 1    
    40   18   27 1    
    41   18   42 1    
    42   18   43 1    
    43   18   44 1    
    44   19   28 1    
    45   19   45 1    
    46   19   46 1    
    47   19   47 1    
    48   20   23 1    
    49   20   48 1    
    50   20   49 1    
    51   22   24 ar   
@<TRIPOS>SUBSTRUCTURE
     1 UNK         1 GROUP             0       ****    0 ROOT    
@<TRIPOS>MOLECULE
ZINC05745910_9
42   44    1
SMALL
USER_CHARGES


@<TRIPOS>ATOM
      1 C1         -7.2417  -12.8787   35.0754 C.ar      1 UNK        -0.1150 
      2 C2         -7.6006  -12.2024   36.2564 C.ar      1 UNK        -0.1150 
      3 C3        -10.3362   -8.7361   38.4238 C.ar      1 UNK        -0.1150 
      4 C4         -8.8892   -7.0317   39.3893 C.ar      1 UNK        -0.1150 
      5 C5         -6.7000  -14.1781   35.1371 C.ar      1 UNK        -0.1150 
      6 C6        -10.7956   -7.8074   37.4687 C.ar      1 UNK        -0.1150 
      7 C7         -9.3469   -6.1024   38.4345 C.ar      1 UNK        -0.1150 
      8 C8         -6.8674  -14.1414   37.5678 C.ar      1 UNK        -0.1150 
      9 C9         -7.4114  -12.8396   37.5016 C.ar      1 UNK         0.0631 
     10 C10        -9.3640   -8.3619   39.3815 C.ar      1 UNK        -0.1150 
     11 C11       -10.2974   -6.4899   37.4724 C.ar      1 UNK         0.1500 
     12 C12        -6.5076  -14.8207   36.3867 C.ar      1 UNK         0.0850 
     13 C13        -7.7890  -12.1292   38.7432 C.2       1 UNK         0.1657 
     14 C14        -8.8852   -9.3285   40.4354 C.2       1 UNK         0.6150 
     15 C15        -7.6028  -12.7432   40.0868 C.3       1 UNK        -0.0721 
     16 C16        -8.1802  -11.6601   41.0089 C.3       1 UNK         0.4650 
     17 C17        -5.5977  -16.7944   35.3669 C.3       1 UNK         0.1100 
     18 C18        -9.4333  -12.1585   41.7915 C.3       1 UNK         0.6171 
     19 N19        -8.2869  -10.9497   38.7766 N.2       1 UNK        -0.2833 
     20 N20        -8.5263  -10.5816   40.0656 N.am      1 UNK        -0.1934 
     21 O21        -8.7725   -8.9413   41.5992 O.2       1 UNK        -0.5000 
     22 O22       -10.7344   -5.5822   36.5540 O.3       1 UNK        -0.5850 
     23 O23        -7.1706  -11.2690   41.9308 O.3       1 UNK        -0.6936 
     24 O24        -5.9842  -16.0861   36.5357 O.3       1 UNK        -0.2850 
     25 F25        -9.1356  -13.2675   42.4704 F         1 UNK        -0.2057 
     26 F26        -9.8808  -11.2479   42.6547 F         1 UNK        -0.2057 
     27 F27       -10.4203  -12.4490   40.9418 F         1 UNK        -0.2057 
     28 H28        -7.3816  -12.3984   34.1179 H         1 UNK         0.1150 
     29 H29        -8.0134  -11.2049   36.1945 H         1 UNK         0.1150 
     30 H30       -10.7328   -9.7410   38.4190 H         1 UNK         0.1150 
     31 H31        -8.1679   -6.7224   40.1324 H         1 UNK         0.1150 
     32 H32        -6.4384  -14.6611   34.2080 H         1 UNK         0.1150 
     33 H33       -11.5322   -8.1169   36.7425 H         1 UNK         0.1150 
     34 H34        -8.9714   -5.0894   38.4440 H         1 UNK         0.1150 
     35 H35        -6.7124  -14.6426   38.5112 H         1 UNK         0.1150 
     36 H36        -8.1521  -13.6813   40.1675 H         1 UNK         0.0600 
     37 H37        -6.5481  -12.9396   40.2830 H         1 UNK         0.0600 
     38 H38        -5.2011  -17.7688   35.6520 H         1 UNK         0.0300 
     39 H39        -4.8142  -16.2664   34.8214 H         1 UNK         0.0300 
     40 H40        -6.4479  -16.9658   34.7054 H         1 UNK         0.0300 
     41 H41       -11.3858   -5.9238   35.9623 H         1 UNK         0.4350 
     42 H42        -7.5098  -10.5010   42.3805 H         1 UNK         0.4286 
@<TRIPOS>BOND
     1    1    2 ar   
     2    1    5 ar   
     3    1   28 1    
     4    2    9 ar   
     5    2   29 1    
     6    3    6 ar   
     7    3   10 ar   
     8    3   30 1    
     9    4    7 ar   
    10    4   10 ar   
    11    4   31 1    
    12    5   12 ar   
    13    5   32 1    
    14    6   11 ar   
    15    6   33 1    
    16    7   11 ar   
    17    7   34 1    
    18    8    9 ar   
    19    8   12 ar   
    20    8   35 1    
    21    9   13 1    
    22   10   14 1    
    23   11   22 1    
    24   12   24 1    
    25   13   15 1    
    26   13   19 2    
    27   14   20 am   BACKBONE|DICT|INTERRES
    28   14   21 2    
    29   15   16 1    
    30   15   36 1    
    31   15   37 1    
    32   16   18 1    
    33   16   20 1    
    34   16   23 1    
    35   17   24 1    
    36   17   38 1    
    37   17   39 1    
    38   17   40 1    
    39   18   25 1    
    40   18   26 1    
    41   18   27 1    
    42   19   20 1    
    43   22   41 1    
    44   23   42 1    
@<TRIPOS>SUBSTRUCTURE
     1 UNK         1 GROUP             0       ****    0 ROOT    
@<TRIPOS>MOLECULE
ZINC05926801_22
45   47    1
SMALL
USER_CHARGES


@<TRIPOS>ATOM
      1 C1         -7.9052   -5.8677   38.6353 C.ar      1 UNK        -0.1150 
      2 C2         -6.7724   -3.9453   39.6167 C.ar      1 UNK        -0.1150 
      3 C3         -4.4020  -10.2105   38.4494 C.ar      1 UNK        -0.3696 
      4 C4         -5.4267   -7.6963   37.6735 C.ar      1 UNK        -0.3290 
      5 C5         -5.4268   -8.3238   41.2041 C.ar      1 UNK         0.3611 
      6 C6         -7.0190   -5.3324   39.5926 C.ar      1 UNK        -0.1150 
      7 C7         -4.4502   -9.8598   37.0823 C.ar      1 UNK        -0.1126 
      8 C8         -4.9611   -8.5972   36.6940 C.ar      1 UNK        -0.1360 
      9 C9         -4.8640   -9.3250   39.4430 C.ar      1 UNK         0.4982 
     10 C10        -5.3940   -8.0637   39.0349 C.ar      1 UNK         0.2299 
     11 C11        -8.4988   -5.0362   37.6567 C.ar      1 UNK         0.0850 
     12 C12        -7.3668   -3.0917   38.6570 C.ar      1 UNK         0.0850 
     13 C13        -8.2162   -3.6501   37.6755 C.ar      1 UNK         0.0850 
     14 C14        -6.3941   -6.2165   40.6284 C.2       1 UNK         0.7375 
     15 C15        -3.9406  -10.8451   36.0456 C.3       1 UNK        -0.0650 
     16 C16        -5.0120   -8.1933   35.2311 C.3       1 UNK        -0.0650 
     17 C17        -9.6049   -6.8979   36.6055 C.3       1 UNK         0.1100 
     18 C18        -6.3515   -1.1321   39.6127 C.3       1 UNK         0.1100 
     19 C19        -8.1405   -2.8501   35.4874 C.3       1 UNK         0.1100 
     20 N20        -4.8898   -9.4783   40.8163 N.2       1 UNK        -0.6787 
     21 N21        -5.7726   -7.4530   40.2299 N.pl3     1 UNK        -0.3410 
     22 O22        -6.3704   -5.8825   41.8140 O.2       1 UNK        -0.5000 
     23 O23        -9.3483   -5.5029   36.6746 O.3       1 UNK        -0.2850 
     24 O24        -7.1565   -1.7292   38.6077 O.3       1 UNK        -0.2850 
     25 O25        -8.7889   -2.8191   36.7475 O.3       1 UNK        -0.2850 
     26 H26        -8.1088   -6.9276   38.6629 H         1 UNK         0.1150 
     27 H27        -6.1168   -3.5589   40.3829 H         1 UNK         0.1150 
     28 H28        -4.0058  -11.1636   38.7634 H         1 UNK         0.2091 
     29 H29        -5.7929   -6.7269   37.3745 H         1 UNK         0.1984 
     30 H30        -5.5906   -8.1311   42.2570 H         1 UNK         0.1177 
     31 H31        -4.7352  -11.1110   35.3481 H         1 UNK         0.0600 
     32 H32        -3.1143  -10.4125   35.4812 H         1 UNK         0.0600 
     33 H33        -3.5817  -11.7649   36.5082 H         1 UNK         0.0600 
     34 H34        -4.0114   -8.1994   34.7983 H         1 UNK         0.0600 
     35 H35        -5.6375   -8.8845   34.6656 H         1 UNK         0.0600 
     36 H36        -5.4237   -7.1917   35.1036 H         1 UNK         0.0600 
     37 H37       -10.2708   -7.0984   35.7663 H         1 UNK         0.0300 
     38 H38       -10.0984   -7.2584   37.5090 H         1 UNK         0.0300 
     39 H39        -8.6877   -7.4657   36.4414 H         1 UNK         0.0300 
     40 H40        -6.3084   -0.0560   39.4448 H         1 UNK         0.0300 
     41 H41        -5.3291   -1.5112   39.5818 H         1 UNK         0.0300 
     42 H42        -6.7695   -1.2941   40.6073 H         1 UNK         0.0300 
     43 H43        -8.6067   -2.1248   34.8209 H         1 UNK         0.0300 
     44 H44        -8.2152   -3.8312   35.0176 H         1 UNK         0.0300 
     45 H45        -7.0858   -2.5878   35.5827 H         1 UNK         0.0300 
@<TRIPOS>BOND
     1    1    6 ar   
     2    1   11 ar   
     3    1   26 1    
     4    2    6 ar   
     5    2   12 ar   
     6    2   27 1    
     7    3    7 ar   
     8    3    9 ar   
     9    3   28 1    
    10    4    8 ar   
    11    4   10 ar   
    12    4   29 1    
    13    5   20 ar   
    14    5   21 ar   
    15    5   30 1    
    16    6   14 1    
    17    7    8 ar   
    18    7   15 1    
    19    8   16 1    
    20    9   10 ar   
    21    9   20 ar   
    22   10   21 ar   
    23   11   13 ar   
    24   11   23 1    
    25   12   13 ar   
    26   12   24 1    
    27   13   25 1    
    28   14   21 1    
    29   14   22 2    
    30   15   31 1    
    31   15   32 1    
    32   15   33 1    
    33   16   34 1    
    34   16   35 1    
    35   16   36 1    
    36   17   23 1    
    37   17   37 1    
    38   17   38 1    
    39   17   39 1    
    40   18   24 1    
    41   18   40 1    
    42   18   41 1    
    43   18   42 1    
    44   19   25 1    
    45   19   43 1    
    46   19   44 1    
    47   19   45 1    
@<TRIPOS>SUBSTRUCTURE
     1 UNK         1 GROUP             0       ****    0 ROOT    
@<TRIPOS>MOLECULE
ZINC06004633_94
45   47    1
SMALL
USER_CHARGES


@<TRIPOS>ATOM
      1 C1        -17.8473  -25.8842   35.8959 C.ar      1 UNK        -0.1150 
      2 C2        -17.7549  -25.0989   37.0619 C.ar      1 UNK        -0.1150 
      3 C3        -19.0816  -26.0182   35.2323 C.ar      1 UNK        -0.1150 
      4 C4        -20.9871  -19.0063   39.3148 C.ar      1 UNK        -0.1150 
      5 C5        -22.0490  -21.1143   38.7429 C.ar      1 UNK        -0.1150 
      6 C6        -20.1347  -24.5870   36.9022 C.ar      1 UNK        -0.1150 
      7 C7        -21.1218  -20.3925   39.5168 C.ar      1 UNK         0.0000 
      8 C8        -18.8969  -24.4453   37.5741 C.ar      1 UNK         0.0631 
      9 C9        -20.2248  -25.3695   35.7341 C.ar      1 UNK         0.1500 
     10 C10       -21.7399  -18.3422   38.3155 C.ar      1 UNK         0.0850 
     11 C11       -22.8154  -20.4872   37.7450 C.ar      1 UNK         0.0850 
     12 C12       -22.6366  -19.0925   37.5014 C.ar      1 UNK         0.0850 
     13 C13       -20.3075  -21.0689   40.5742 C.ar      1 UNK         0.4815 
     14 C14       -19.0861  -22.5856   41.6673 C.ar      1 UNK         0.3198 
     15 C15       -18.7706  -23.6231   38.7858 C.2       1 UNK         0.1451 
     16 C16       -20.7996  -16.2066   38.9400 C.3       1 UNK         0.1100 
     17 C17       -24.7542  -20.8085   36.3229 C.3       1 UNK         0.1100 
     18 C18       -22.6200  -17.6819   35.5755 C.3       1 UNK         0.1100 
     19 N19       -20.0747  -20.5409   41.7316 N.2       1 UNK        -0.3590 
     20 N20       -19.7973  -23.1016   39.3664 N.2       1 UNK        -0.2833 
     21 N21       -19.3309  -21.4702   42.3704 N.pl3     1 UNK        -0.2218 
     22 N22       -19.6571  -22.2966   40.4722 N.pl3     1 UNK        -0.0377 
     23 O23       -21.4138  -25.5024   35.0795 O.3       1 UNK        -0.5850 
     24 O24       -21.6524  -16.9795   38.1076 O.3       1 UNK        -0.2850 
     25 O25       -23.6670  -21.3381   37.0665 O.3       1 UNK        -0.2850 
     26 O26       -23.3522  -18.4828   36.4944 O.3       1 UNK        -0.2850 
     27 S27       -18.2872  -23.9332   42.2355 S.2       1 UNK        -0.4762 
     28 H28       -16.9719  -26.3856   35.5094 H         1 UNK         0.1150 
     29 H29       -16.8012  -25.0050   37.5623 H         1 UNK         0.1150 
     30 H30       -19.1526  -26.6194   34.3370 H         1 UNK         0.1150 
     31 H31       -20.2921  -18.4700   39.9428 H         1 UNK         0.1150 
     32 H32       -22.1915  -22.1713   38.9140 H         1 UNK         0.1150 
     33 H33       -21.0150  -24.0887   37.2813 H         1 UNK         0.1150 
     34 H34       -17.7701  -23.4551   39.1886 H         1 UNK         0.0685 
     35 H35       -20.8702  -15.1583   38.6496 H         1 UNK         0.0300 
     36 H36       -21.0926  -16.2766   39.9885 H         1 UNK         0.0300 
     37 H37       -19.7567  -16.5072   38.8321 H         1 UNK         0.0300 
     38 H38       -24.4196  -20.3898   35.3735 H         1 UNK         0.0300 
     39 H39       -25.3047  -20.0539   36.8866 H         1 UNK         0.0300 
     40 H40       -25.4515  -21.6133   36.0910 H         1 UNK         0.0300 
     41 H41       -22.6577  -16.6298   35.8583 H         1 UNK         0.0300 
     42 H42       -23.0722  -17.7688   34.5876 H         1 UNK         0.0300 
     43 H43       -21.5768  -17.9906   35.4882 H         1 UNK         0.0300 
     44 H44       -19.0502  -21.3389   43.3325 H         1 UNK         0.3000 
     45 H45       -22.1288  -25.0337   35.4828 H         1 UNK         0.4350 
@<TRIPOS>BOND
     1    1    2 ar   
     2    1    3 ar   
     3    1   28 1    
     4    2    8 ar   
     5    2   29 1    
     6    3    9 ar   
     7    3   30 1    
     8    4    7 ar   
     9    4   10 ar   
    10    4   31 1    
    11    5    7 ar   
    12    5   11 ar   
    13    5   32 1    
    14    6    8 ar   
    15    6    9 ar   
    16    6   33 1    
    17    7   13 1    
    18    8   15 1    
    19    9   23 1    
    20   10   12 ar   
    21   10   24 1    
    22   11   12 ar   
    23   11   25 1    
    24   12   26 1    
    25   13   19 ar   
    26   13   22 ar   
    27   14   21 ar   
    28   14   22 ar   
    29   14   27 2    
    30   15   20 2    
    31   15   34 1    
    32   16   24 1    
    33   16   35 1    
    34   16   36 1    
    35   16   37 1    
    36   17   25 1    
    37   17   38 1    
    38   17   39 1    
    39   17   40 1    
    40   18   26 1    
    41   18   41 1    
    42   18   42 1    
    43   18   43 1    
    44   19   21 ar   
    45   20   22 1    
    46   21   44 1    
    47   23   45 1    
@<TRIPOS>SUBSTRUCTURE
     1 UNK         1 GROUP             0       ****    0 ROOT    
@<TRIPOS>MOLECULE
ZINC06004792_89
49   51    1
SMALL
USER_CHARGES


@<TRIPOS>ATOM
      1 C1         -7.5883  -12.5758   36.7738 C.ar      1 UNK        -0.1150 
      2 C2         -7.3059  -13.2422   35.5684 C.ar      1 UNK        -0.1150 
      3 C3        -10.7459   -9.8356   38.4163 C.ar      1 UNK        -0.1150 
      4 C4        -10.2411   -7.6221   39.2884 C.ar      1 UNK        -0.1150 
      5 C5         -8.1657  -14.7026   37.7966 C.ar      1 UNK        -0.1150 
      6 C6        -10.1302   -9.0229   39.3871 C.ar      1 UNK         0.0000 
      7 C7         -8.0242  -13.3043   37.9005 C.ar      1 UNK         0.0631 
      8 C8         -7.4524  -14.6409   35.4657 C.ar      1 UNK         0.1500 
      9 C9        -11.4249   -9.2583   37.3194 C.ar      1 UNK         0.0850 
     10 C10       -10.9344   -7.0155   38.2114 C.ar      1 UNK         0.0850 
     11 C11        -7.8864  -15.3919   36.5989 C.ar      1 UNK         0.0850 
     12 C12       -11.5063   -7.8500   37.2056 C.ar      1 UNK         0.0850 
     13 C13        -9.3879   -9.6278   40.5394 C.ar      1 UNK         0.4815 
     14 C14        -8.0371  -10.9401   41.7363 C.ar      1 UNK         0.3198 
     15 C15        -8.3513  -12.6427   39.1713 C.2       1 UNK         0.1451 
     16 C16       -11.9210  -11.4211   36.3753 C.3       1 UNK         0.1100 
     17 C17       -10.5961   -4.8194   39.1655 C.3       1 UNK         0.1100 
     18 C18        -7.7559  -17.5977   35.5754 C.3       1 UNK         0.1100 
     19 C19       -11.8265   -6.1395   35.5295 C.3       1 UNK         0.1100 
     20 N20        -9.3712   -9.1037   41.7218 N.2       1 UNK        -0.3590 
     21 N21        -8.2280  -11.3690   39.3337 N.2       1 UNK        -0.2833 
     22 N22        -8.5735   -9.9280   42.4330 N.pl3     1 UNK        -0.2218 
     23 N23        -8.6098  -10.7846   40.5173 N.pl3     1 UNK        -0.0377 
     24 O24        -7.1705  -15.2069   34.2557 O.3       1 UNK        -0.5850 
     25 O25       -12.0193  -10.0052   36.3214 O.3       1 UNK        -0.2850 
     26 O26       -11.0884   -5.6458   38.1203 O.3       1 UNK        -0.2850 
     27 O27        -8.0820  -16.7583   36.6720 O.3       1 UNK        -0.2850 
     28 O28       -12.1910   -7.3877   36.0984 O.3       1 UNK        -0.2850 
     29 S29        -6.9260  -12.0356   42.3209 S.2       1 UNK        -0.4762 
     30 H30        -7.4700  -11.5025   36.8236 H         1 UNK         0.1150 
     31 H31        -6.9768  -12.6608   34.7199 H         1 UNK         0.1150 
     32 H32       -10.6857  -10.9063   38.5252 H         1 UNK         0.1150 
     33 H33        -9.7810   -7.0264   40.0619 H         1 UNK         0.1150 
     34 H34        -8.4954  -15.2748   38.6520 H         1 UNK         0.1150 
     35 H35        -8.7197  -13.2629   39.9908 H         1 UNK         0.0685 
     36 H36       -12.4192  -11.8483   35.5049 H         1 UNK         0.0300 
     37 H37       -12.4117  -11.8207   37.2636 H         1 UNK         0.0300 
     38 H38       -10.8814  -11.7520   36.3545 H         1 UNK         0.0300 
     39 H39       -10.8392   -3.7803   38.9438 H         1 UNK         0.0300 
     40 H40        -9.5113   -4.8902   39.2540 H         1 UNK         0.0300 
     41 H41       -11.0577   -5.0669   40.1224 H         1 UNK         0.0300 
     42 H42        -8.3924  -17.3945   34.7135 H         1 UNK         0.0300 
     43 H43        -7.9228  -18.6360   35.8617 H         1 UNK         0.0300 
     44 H44        -6.7061  -17.5047   35.2945 H         1 UNK         0.0300 
     45 H45       -12.1293   -6.1250   34.4828 H         1 UNK         0.0300 
     46 H46       -10.7492   -5.9701   35.5601 H         1 UNK         0.0300 
     47 H47       -12.3408   -5.3162   36.0253 H         1 UNK         0.0300 
     48 H48        -8.3517   -9.7303   43.3991 H         1 UNK         0.3000 
     49 H49        -6.8842  -14.5884   33.6028 H         1 UNK         0.4350 
@<TRIPOS>BOND
     1    1    2 ar   
     2    1    7 ar   
     3    1   30 1    
     4    2    8 ar   
     5    2   31 1    
     6    3    6 ar   
     7    3    9 ar   
     8    3   32 1    
     9    4    6 ar   
    10    4   10 ar   
    11    4   33 1    
    12    5    7 ar   
    13    5   11 ar   
    14    5   34 1    
    15    6   13 1    
    16    7   15 1    
    17    8   11 ar   
    18    8   24 1    
    19    9   12 ar   
    20    9   25 1    
    21   10   12 ar   
    22   10   26 1    
    23   11   27 1    
    24   12   28 1    
    25   13   20 ar   
    26   13   23 ar   
    27   14   22 ar   
    28   14   23 ar   
    29   14   29 2    
    30   15   21 2    
    31   15   35 1    
    32   16   25 1    
    33   16   36 1    
    34   16   37 1    
    35   16   38 1    
    36   17   26 1    
    37   17   39 1    
    38   17   40 1    
    39   17   41 1    
    40   18   27 1    
    41   18   42 1    
    42   18   43 1    
    43   18   44 1    
    44   19   28 1    
    45   19   45 1    
    46   19   46 1    
    47   19   47 1    
    48   20   22 ar   
    49   21   23 1    
    50   22   48 1    
    51   24   49 1    
@<TRIPOS>SUBSTRUCTURE
     1 UNK         1 GROUP             0       ****    0 ROOT    
@<TRIPOS>MOLECULE
ZINC06007293_182
48   50    1
SMALL
USER_CHARGES


@<TRIPOS>ATOM
      1 C1        -61.4887  -75.7085   36.2371 C.ar      1 UNK        -0.1150 
      2 C2        -61.1860  -74.5902   37.0365 C.ar      1 UNK        -0.1150 
      3 C3        -62.8203  -76.1467   36.1062 C.ar      1 UNK        -0.1150 
      4 C4        -65.3580  -70.5548   38.8762 C.ar      1 UNK        -0.1150 
      5 C5        -64.4974  -68.3176   38.4788 C.ar      1 UNK        -0.1150 
      6 C6        -63.5483  -74.3508   37.5777 C.ar      1 UNK        -0.1150 
      7 C7        -64.3664  -69.5795   39.0893 C.ar      1 UNK         0.0000 
      8 C8        -62.2138  -73.9025   37.7143 C.ar      1 UNK         0.0631 
      9 C9        -63.8656  -75.4669   36.7784 C.ar      1 UNK         0.0850 
     10 C10       -66.4592  -70.3031   38.0398 C.ar      1 UNK         0.0850 
     11 C11       -65.6068  -68.0236   37.6483 C.ar      1 UNK         0.0850 
     12 C12       -66.6071  -69.0165   37.4447 C.ar      1 UNK         0.0850 
     13 C13       -63.1866  -69.8548   39.9671 C.ar      1 UNK         0.4815 
     14 C14       -61.4793  -70.8876   40.9699 C.ar      1 UNK         0.3198 
     15 C15       -61.8731  -72.7329   38.5367 C.2       1 UNK         0.1451 
     16 C16       -65.5461  -76.9496   35.9173 C.3       1 UNK         0.1100 
     17 C17       -68.1084  -71.4710   36.7199 C.3       1 UNK         0.1100 
     18 C18       -64.7627  -65.8065   37.1974 C.3       1 UNK         0.1100 
     19 C19       -68.4484  -67.5756   36.9738 C.3       1 UNK         0.1100 
     20 N20       -62.7092  -68.9853   40.7972 N.2       1 UNK        -0.3590 
     21 N21       -62.7489  -72.1288   39.2650 N.2       1 UNK        -0.2833 
     22 N22       -61.6771  -69.6280   41.3854 N.pl3     1 UNK        -0.2218 
     23 N23       -62.4146  -71.0141   39.9967 N.pl3     1 UNK        -0.0377 
     24 O24       -65.1947  -75.8221   36.7054 O.3       1 UNK        -0.2850 
     25 O25       -67.3375  -71.3591   37.9070 O.3       1 UNK        -0.2850 
     26 O26       -65.7493  -66.8099   37.0046 O.3       1 UNK        -0.2850 
     27 O27       -67.7185  -68.7576   36.6731 O.3       1 UNK        -0.2850 
     28 S28       -60.3468  -71.9437   41.5862 S.2       1 UNK        -0.4762 
     29 H29       -60.6966  -76.2331   35.7229 H         1 UNK         0.1150 
     30 H30       -60.1588  -74.2668   37.1292 H         1 UNK         0.1150 
     31 H31       -63.0136  -77.0070   35.4839 H         1 UNK         0.1150 
     32 H32       -65.2813  -71.5229   39.3494 H         1 UNK         0.1150 
     33 H33       -63.7228  -67.5878   38.6585 H         1 UNK         0.1150 
     34 H34       -64.3514  -73.8365   38.0856 H         1 UNK         0.1150 
     35 H35       -60.8420  -72.3764   38.5153 H         1 UNK         0.0685 
     36 H36       -66.6242  -77.1013   35.9681 H         1 UNK         0.0300 
     37 H37       -65.2837  -76.8006   34.8691 H         1 UNK         0.0300 
     38 H38       -65.0680  -77.8581   36.2855 H         1 UNK         0.0300 
     39 H39       -67.5348  -71.2046   35.8307 H         1 UNK         0.0300 
     40 H40       -68.4311  -72.5052   36.6018 H         1 UNK         0.0300 
     41 H41       -69.0073  -70.8565   36.7735 H         1 UNK         0.0300 
     42 H42       -64.6904  -65.5131   38.2456 H         1 UNK         0.0300 
     43 H43       -63.7848  -66.1340   36.8423 H         1 UNK         0.0300 
     44 H44       -65.0383  -64.9194   36.6272 H         1 UNK         0.0300 
     45 H45       -69.5088  -67.7567   36.7992 H         1 UNK         0.0300 
     46 H46       -68.1474  -66.7547   36.3230 H         1 UNK         0.0300 
     47 H47       -68.3345  -67.2655   38.0140 H         1 UNK         0.0300 
     48 H48       -61.1501  -69.1920   42.1294 H         1 UNK         0.3000 
@<TRIPOS>BOND
     1    1    2 ar   
     2    1    3 ar   
     3    1   29 1    
     4    2    8 ar   
     5    2   30 1    
     6    3    9 ar   
     7    3   31 1    
     8    4    7 ar   
     9    4   10 ar   
    10    4   32 1    
    11    5    7 ar   
    12    5   11 ar   
    13    5   33 1    
    14    6    8 ar   
    15    6    9 ar   
    16    6   34 1    
    17    7   13 1    
    18    8   15 1    
    19    9   24 1    
    20   10   12 ar   
    21   10   25 1    
    22   11   12 ar   
    23   11   26 1    
    24   12   27 1    
    25   13   20 ar   
    26   13   23 ar   
    27   14   22 ar   
    28   14   23 ar   
    29   14   28 2    
    30   15   21 2    
    31   15   35 1    
    32   16   24 1    
    33   16   36 1    
    34   16   37 1    
    35   16   38 1    
    36   17   25 1    
    37   17   39 1    
    38   17   40 1    
    39   17   41 1    
    40   18   26 1    
    41   18   42 1    
    42   18   43 1    
    43   18   44 1    
    44   19   27 1    
    45   19   45 1    
    46   19   46 1    
    47   19   47 1    
    48   20   22 ar   
    49   21   23 1    
    50   22   48 1    
@<TRIPOS>SUBSTRUCTURE
     1 UNK         1 GROUP             0       ****    0 ROOT    
@<TRIPOS>MOLECULE
ZINC06007371_64
49   51    1
SMALL
USER_CHARGES


@<TRIPOS>ATOM
      1 C1         -8.7385  -15.5425   35.9397 C.ar      1 UNK        -0.1150 
      2 C2         -9.1199  -14.9755   37.1700 C.ar      1 UNK        -0.1150 
      3 C3         -9.4179  -16.6679   35.4381 C.ar      1 UNK        -0.1150 
      4 C4        -12.6157  -12.0144   38.6720 C.ar      1 UNK        -0.1150 
      5 C5        -12.0245   -9.9217   39.7491 C.ar      1 UNK        -0.1150 
      6 C6        -11.9976  -11.3278   39.7337 C.ar      1 UNK         0.0000 
      7 C7        -10.1861  -15.5281   37.9161 C.ar      1 UNK         0.0631 
      8 C8        -10.4913  -17.2341   36.1672 C.ar      1 UNK         0.0850 
      9 C9        -13.2084  -11.3131   37.5954 C.ar      1 UNK         0.0850 
     10 C10       -12.6304   -9.1909   38.7106 C.ar      1 UNK         0.0850 
     11 C11       -10.8672  -16.6573   37.3976 C.ar      1 UNK         0.1500 
     12 C12       -13.1957   -9.8885   37.6007 C.ar      1 UNK         0.0850 
     13 C13       -11.3533  -12.0728   40.8612 C.ar      1 UNK         0.4815 
     14 C14       -10.1622  -13.5784   41.9987 C.ar      1 UNK         0.3198 
     15 C15       -10.5872  -14.9354   39.2039 C.2       1 UNK         0.1451 
     16 C16       -10.8544  -18.9561   34.5339 C.3       1 UNK         0.1100 
     17 C17       -13.7546  -13.3838   36.4764 C.3       1 UNK         0.1100 
     18 C18       -13.4675   -6.9843   38.1515 C.3       1 UNK         0.1100 
     19 C19       -13.3432   -9.5406   35.2414 C.3       1 UNK         0.1100 
     20 N20       -11.3717  -11.6596   42.0869 N.2       1 UNK        -0.3590 
     21 N21       -10.1925  -13.7652   39.5781 N.2       1 UNK        -0.2833 
     22 N22       -10.6697  -12.5976   42.7590 N.pl3     1 UNK        -0.2218 
     23 N23       -10.6450  -13.2703   40.7730 N.pl3     1 UNK        -0.0377 
     24 O24       -11.9218  -17.2316   38.0474 O.3       1 UNK        -0.5850 
     25 O25       -11.2209  -18.3313   35.7559 O.3       1 UNK        -0.2850 
     26 O26       -13.8242  -11.9654   36.5445 O.3       1 UNK        -0.2850 
     27 O27       -12.5769   -7.8201   38.8747 O.3       1 UNK        -0.2850 
     28 O28       -13.7387   -9.1721   36.5563 O.3       1 UNK        -0.2850 
     29 S29        -9.1690  -14.8099   42.5198 S.2       1 UNK        -0.4762 
     30 H30        -7.9192  -15.1127   35.3812 H         1 UNK         0.1150 
     31 H31        -8.5804  -14.1158   37.5421 H         1 UNK         0.1150 
     32 H32        -9.0965  -17.0764   34.4923 H         1 UNK         0.1150 
     33 H33       -12.6328  -13.0910   38.7044 H         1 UNK         0.1150 
     34 H34       -11.5767   -9.3836   40.5727 H         1 UNK         0.1150 
     35 H35       -11.2555  -15.5125   39.8458 H         1 UNK         0.0685 
     36 H36       -11.5089  -19.8092   34.3548 H         1 UNK         0.0300 
     37 H37        -9.8299  -19.3295   34.5683 H         1 UNK         0.0300 
     38 H38       -10.9630  -18.2748   33.6889 H         1 UNK         0.0300 
     39 H39       -14.2328  -13.7223   35.5574 H         1 UNK         0.0300 
     40 H40       -14.2808  -13.8505   37.3101 H         1 UNK         0.0300 
     41 H41       -12.7217  -13.7356   36.4567 H         1 UNK         0.0300 
     42 H42       -14.4896   -7.3649   38.1688 H         1 UNK         0.0300 
     43 H43       -13.1389   -6.8540   37.1202 H         1 UNK         0.0300 
     44 H44       -13.4808   -5.9968   38.6123 H         1 UNK         0.0300 
     45 H45       -13.2989   -8.6477   34.6182 H         1 UNK         0.0300 
     46 H46       -14.0703  -10.2158   34.7901 H         1 UNK         0.0300 
     47 H47       -12.3578  -10.0090   35.2152 H         1 UNK         0.0300 
     48 H48       -10.4945  -12.5043   43.7499 H         1 UNK         0.3000 
     49 H49       -12.1916  -17.9942   37.5514 H         1 UNK         0.4350 
@<TRIPOS>BOND
     1    1    2 ar   
     2    1    3 ar   
     3    1   30 1    
     4    2    7 ar   
     5    2   31 1    
     6    3    8 ar   
     7    3   32 1    
     8    4    6 ar   
     9    4    9 ar   
    10    4   33 1    
    11    5    6 ar   
    12    5   10 ar   
    13    5   34 1    
    14    6   13 1    
    15    7   11 ar   
    16    7   15 1    
    17    8   11 ar   
    18    8   25 1    
    19    9   12 ar   
    20    9   26 1    
    21   10   12 ar   
    22   10   27 1    
    23   11   24 1    
    24   12   28 1    
    25   13   20 ar   
    26   13   23 ar   
    27   14   22 ar   
    28   14   23 ar   
    29   14   29 2    
    30   15   21 2    
    31   15   35 1    
    32   16   25 1    
    33   16   36 1    
    34   16   37 1    
    35   16   38 1    
    36   17   26 1    
    37   17   39 1    
    38   17   40 1    
    39   17   41 1    
    40   18   27 1    
    41   18   42 1    
    42   18   43 1    
    43   18   44 1    
    44   19   28 1    
    45   19   45 1    
    46   19   46 1    
    47   19   47 1    
    48   20   22 ar   
    49   21   23 1    
    50   22   48 1    
    51   24   49 1    
@<TRIPOS>SUBSTRUCTURE
     1 UNK         1 GROUP             0       ****    0 ROOT    
@<TRIPOS>MOLECULE
ZINC06031192_27
42   43    1
SMALL
USER_CHARGES


@<TRIPOS>ATOM
      1 C1         -7.8508   -5.9243   38.6316 C.ar      1 UNK        -0.1150 
      2 C2         -6.7729   -3.9524   39.5745 C.ar      1 UNK        -0.1150 
      3 C3         -7.0020   -5.3426   39.5976 C.ar      1 UNK        -0.1150 
      4 C4         -8.4227   -5.1372   37.6042 C.ar      1 UNK         0.0850 
      5 C5         -7.3420   -3.1434   38.5623 C.ar      1 UNK         0.0850 
      6 C6         -8.1528   -3.7492   37.5766 C.ar      1 UNK         0.0850 
      7 C7         -6.4006   -6.1709   40.6970 C.2       1 UNK         0.6150 
      8 C8         -5.1989   -8.2258   41.3661 C.3       1 UNK        -0.0500 
      9 C9         -5.1957   -7.6372   39.0298 C.3       1 UNK        -0.0500 
     10 C10        -5.7707   -9.6053   40.9975 C.3       1 UNK         0.1400 
     11 C11        -5.7879   -9.0168   38.6841 C.3       1 UNK         0.1700 
     12 C12        -5.3168   -9.5285   37.3211 C.3       1 UNK        -0.1800 
     13 C13        -9.5383   -7.0352   36.6315 C.3       1 UNK         0.1100 
     14 C14        -6.4057   -1.1341   39.4927 C.3       1 UNK         0.1100 
     15 C15        -7.9867   -3.0000   35.3786 C.3       1 UNK         0.1100 
     16 N16        -5.6602   -7.2568   40.3682 N.am      1 UNK        -0.1400 
     17 O17        -6.5967   -5.8294   41.8620 O.2       1 UNK        -0.5000 
     18 O18        -5.3678   -9.9521   39.6734 O.3       1 UNK        -0.4000 
     19 O19        -9.2404   -5.6474   36.6165 O.3       1 UNK        -0.2850 
     20 O20        -7.1445   -1.7812   38.4679 O.3       1 UNK        -0.2850 
     21 O21        -8.7064   -2.9641   36.5986 O.3       1 UNK        -0.2850 
     22 H22        -8.0534   -6.9810   38.6998 H         1 UNK         0.1150 
     23 H23        -6.1508   -3.5288   40.3489 H         1 UNK         0.1150 
     24 H24        -5.5041   -7.9662   42.3812 H         1 UNK         0.0600 
     25 H25        -4.1087   -8.2551   41.3739 H         1 UNK         0.0600 
     26 H26        -4.1060   -7.6915   39.0375 H         1 UNK         0.0600 
     27 H27        -5.4391   -6.9072   38.2589 H         1 UNK         0.0600 
     28 H28        -5.4042  -10.3639   41.6894 H         1 UNK         0.0300 
     29 H29        -6.8597   -9.6082   41.0696 H         1 UNK         0.0300 
     30 H30        -6.8780   -8.9708   38.6808 H         1 UNK         0.0300 
     31 H31        -5.7356  -10.5132   37.1119 H         1 UNK         0.0600 
     32 H32        -4.2307   -9.6173   37.2870 H         1 UNK         0.0600 
     33 H33        -5.6261   -8.8580   36.5190 H         1 UNK         0.0600 
     34 H34       -10.1899   -7.2707   35.7901 H         1 UNK         0.0300 
     35 H35       -10.0636   -7.3205   37.5439 H         1 UNK         0.0300 
     36 H36        -8.6357   -7.6391   36.5277 H         1 UNK         0.0300 
     37 H37        -6.3802   -0.0627   39.2945 H         1 UNK         0.0300 
     38 H38        -5.3744   -1.4878   39.5248 H         1 UNK         0.0300 
     39 H39        -6.8693   -1.2767   40.4698 H         1 UNK         0.0300 
     40 H40        -8.4471   -2.3178   34.6645 H         1 UNK         0.0300 
     41 H41        -7.9896   -3.9980   34.9390 H         1 UNK         0.0300 
     42 H42        -6.9524   -2.6849   35.5239 H         1 UNK         0.0300 
@<TRIPOS>BOND
     1    1    3 ar   
     2    1    4 ar   
     3    1   22 1    
     4    2    3 ar   
     5    2    5 ar   
     6    2   23 1    
     7    3    7 1    
     8    4    6 ar   
     9    4   19 1    
    10    5    6 ar   
    11    5   20 1    
    12    6   21 1    
    13    7   16 am   BACKBONE|DICT|INTERRES
    14    7   17 2    
    15    8   10 1    
    16    8   16 1    
    17    8   24 1    
    18    8   25 1    
    19    9   11 1    
    20    9   16 1    
    21    9   26 1    
    22    9   27 1    
    23   10   18 1    
    24   10   28 1    
    25   10   29 1    
    26   11   12 1    
    27   11   18 1    
    28   11   30 1    
    29   12   31 1    
    30   12   32 1    
    31   12   33 1    
    32   13   19 1    
    33   13   34 1    
    34   13   35 1    
    35   13   36 1    
    36   14   20 1    
    37   14   37 1    
    38   14   38 1    
    39   14   39 1    
    40   15   21 1    
    41   15   40 1    
    42   15   41 1    
    43   15   42 1    
@<TRIPOS>SUBSTRUCTURE
     1 UNK         1 GROUP             0       ****    0 ROOT    
@<TRIPOS>MOLECULE
ZINC06155397_61
54   56    1
SMALL
USER_CHARGES


@<TRIPOS>ATOM
      1 C1         -5.1996  -10.1194   36.7126 C.ar      1 UNK        -0.1150 
      2 C2         -5.3311   -8.7217   36.5447 C.ar      1 UNK        -0.1150 
      3 C3         -5.3646  -10.7030   37.9865 C.ar      1 UNK        -0.1150 
      4 C4         -5.6424   -7.8919   37.6438 C.ar      1 UNK        -0.1150 
      5 C5         -8.2751   -6.4285   38.4687 C.ar      1 UNK        -0.1150 
      6 C6         -6.9468   -4.5127   39.1819 C.ar      1 UNK        -0.1150 
      7 C7         -7.2994   -5.8703   39.3225 C.ar      1 UNK        -0.1150 
      8 C8         -5.6814   -9.8617   39.0668 C.ar      1 UNK        -0.1150 
      9 C9         -5.8470   -8.4897   38.9081 C.ar      1 UNK        -0.0383 
     10 C10        -8.8505   -5.6578   37.4314 C.ar      1 UNK         0.0850 
     11 C11        -7.5236   -3.7164   38.1637 C.ar      1 UNK         0.0850 
     12 C12        -8.4644   -4.3067   37.2886 C.ar      1 UNK         0.0850 
     13 C13        -6.6947   -6.6816   40.4334 C.2       1 UNK         0.6150 
     14 C14        -5.8400  -10.2634   40.5038 C.3       1 UNK        -0.0050 
     15 C15        -5.9529   -8.9019   41.2355 C.3       1 UNK         0.0100 
     16 C16        -4.6930   -8.6088   42.0750 C.3       1 UNK        -0.1800 
     17 C17       -11.1015   -7.8242   35.4619 C.3       1 UNK        -0.1800 
     18 C18        -7.1047   -1.3249   40.1542 C.3       1 UNK        -0.1800 
     19 C19        -8.9998   -2.6744   34.0710 C.3       1 UNK        -0.1800 
     20 C20       -10.1207   -7.5244   36.5964 C.3       1 UNK         0.1400 
     21 C21        -6.3636   -1.7010   38.8635 C.3       1 UNK         0.1400 
     22 C22        -8.2419   -3.4887   35.1202 C.3       1 UNK         0.1400 
     23 N23        -6.1508   -7.9002   40.1666 N.am      1 UNK        -0.0317 
     24 O24        -6.7186   -6.2078   41.5702 O.2       1 UNK        -0.5000 
     25 O25        -9.7722   -6.1501   36.5302 O.3       1 UNK        -0.2850 
     26 O26        -7.2212   -2.3843   37.9572 O.3       1 UNK        -0.2850 
     27 O27        -9.0334   -3.5555   36.2933 O.3       1 UNK        -0.2850 
     28 H28        -4.9538  -10.7415   35.8639 H         1 UNK         0.1150 
     29 H29        -5.1828   -8.2825   35.5686 H         1 UNK         0.1150 
     30 H30        -5.2386  -11.7667   38.1277 H         1 UNK         0.1150 
     31 H31        -5.7099   -6.8245   37.4945 H         1 UNK         0.1150 
     32 H32        -8.5540   -7.4606   38.6172 H         1 UNK         0.1150 
     33 H33        -6.2289   -4.1056   39.8773 H         1 UNK         0.1150 
     34 H34        -6.7509  -10.8525   40.6167 H         1 UNK         0.0600 
     35 H35        -4.9946  -10.8637   40.8425 H         1 UNK         0.0600 
     36 H36        -6.8219   -8.9185   41.8964 H         1 UNK         0.0600 
     37 H37        -3.8009   -8.5649   41.4490 H         1 UNK         0.0600 
     38 H38        -4.5346   -9.3830   42.8259 H         1 UNK         0.0600 
     39 H39        -4.7737   -7.6590   42.6042 H         1 UNK         0.0600 
     40 H40       -12.0011   -7.2152   35.5550 H         1 UNK         0.0600 
     41 H41       -10.6515   -7.6096   34.4925 H         1 UNK         0.0600 
     42 H42       -11.4018   -8.8719   35.4696 H         1 UNK         0.0600 
     43 H43        -7.9838   -0.7203   39.9309 H         1 UNK         0.0600 
     44 H44        -7.4405   -2.2035   40.7041 H         1 UNK         0.0600 
     45 H45        -6.4614   -0.7459   40.8164 H         1 UNK         0.0600 
     46 H46        -9.9574   -3.1399   33.8365 H         1 UNK         0.0600 
     47 H47        -9.1972   -1.6655   34.4333 H         1 UNK         0.0600 
     48 H48        -8.4270   -2.5953   33.1475 H         1 UNK         0.0600 
     49 H49        -9.2327   -8.1496   36.4886 H         1 UNK         0.0300 
     50 H50       -10.5884   -7.7522   37.5551 H         1 UNK         0.0300 
     51 H51        -5.4488   -2.2592   39.0631 H         1 UNK         0.0300 
     52 H52        -6.0411   -0.7852   38.3677 H         1 UNK         0.0300 
     53 H53        -7.2798   -3.0203   35.3333 H         1 UNK         0.0300 
     54 H54        -8.0441   -4.4930   34.7417 H         1 UNK         0.0300 
@<TRIPOS>BOND
     1    1    2 ar   
     2    1    3 ar   
     3    1   28 1    
     4    2    4 ar   
     5    2   29 1    
     6    3    8 ar   
     7    3   30 1    
     8    4    9 ar   
     9    4   31 1    
    10    5    7 ar   
    11    5   10 ar   
    12    5   32 1    
    13    6    7 ar   
    14    6   11 ar   
    15    6   33 1    
    16    7   13 1    
    17    8    9 ar   
    18    8   14 1    
    19    9   23 1    
    20   10   12 ar   
    21   10   25 1    
    22   11   12 ar   
    23   11   26 1    
    24   12   27 1    
    25   13   23 am   BACKBONE|DICT|INTERRES
    26   13   24 2    
    27   14   15 1    
    28   14   34 1    
    29   14   35 1    
    30   15   16 1    
    31   15   23 1    
    32   15   36 1    
    33   16   37 1    
    34   16   38 1    
    35   16   39 1    
    36   17   20 1    
    37   17   40 1    
    38   17   41 1    
    39   17   42 1    
    40   18   21 1    
    41   18   43 1    
    42   18   44 1    
    43   18   45 1    
    44   19   22 1    
    45   19   46 1    
    46   19   47 1    
    47   19   48 1    
    48   20   25 1    
    49   20   49 1    
    50   20   50 1    
    51   21   26 1    
    52   21   51 1    
    53   21   52 1    
    54   22   27 1    
    55   22   53 1    
    56   22   54 1    
@<TRIPOS>SUBSTRUCTURE
     1 UNK         1 GROUP             0       ****    0 ROOT    
@<TRIPOS>MOLECULE
ZINC06180815_30
45   47    1
SMALL
USER_CHARGES


@<TRIPOS>ATOM
      1 C1         -5.0889   -9.1881   35.8488 C.ar      1 UNK        -0.1150 
      2 C2         -5.5614  -10.4838   35.5784 C.ar      1 UNK        -0.1150 
      3 C3         -4.7831   -8.8144   37.1712 C.ar      1 UNK        -0.1150 
      4 C4         -5.7092  -11.4058   36.6300 C.ar      1 UNK        -0.1150 
      5 C5         -6.9216   -3.8704   39.6086 C.ar      1 UNK        -0.1150 
      6 C6         -7.1140   -5.5691   37.8811 C.ar      1 UNK        -0.1150 
      7 C7         -4.9569   -9.7175   38.2501 C.ar      1 UNK         0.0044 
      8 C8         -6.6523   -5.1780   39.1583 C.ar      1 UNK        -0.1150 
      9 C9         -7.6262   -2.9522   38.7953 C.ar      1 UNK         0.0850 
     10 C10        -7.8255   -4.6724   37.0466 C.ar      1 UNK         0.0850 
     11 C11        -8.0605   -3.3452   37.5079 C.ar      1 UNK         0.0850 
     12 C12        -5.4025  -11.0363   37.9549 C.ar      1 UNK         0.1525 
     13 C13        -4.6542   -9.3073   39.6578 C.2       1 UNK         0.3492 
     14 C14        -5.8924   -6.1106   40.0416 C.2       1 UNK         0.6250 
     15 C15        -3.9946  -10.3934   40.4809 C.3       1 UNK        -0.0839 
     16 C16        -5.0022  -11.5124   40.7572 C.3       1 UNK         0.0475 
     17 C17        -7.5231   -1.2364   40.4826 C.3       1 UNK         0.1100 
     18 C18        -8.1571   -6.3971   35.3838 C.3       1 UNK         0.1100 
     19 C19        -8.5562   -2.3416   35.3769 C.3       1 UNK         0.1100 
     20 N20        -4.9024   -8.1937   40.2273 N.2       1 UNK        -0.2897 
     21 O21        -5.5211   -5.8087   41.1792 O.2       1 UNK        -0.4300 
     22 O22        -7.9117   -1.6585   39.1842 O.3       1 UNK        -0.2850 
     23 O23        -8.3176   -5.0522   35.8125 O.3       1 UNK        -0.2850 
     24 O24        -8.7358   -2.3823   36.7845 O.3       1 UNK        -0.2850 
     25 O25        -5.6537   -7.3050   39.4360 O.3       1 UNK        -0.1800 
     26 S26        -5.5464  -12.2852   39.2085 S.3       1 UNK        -0.3200 
     27 H27        -4.9554   -8.4813   35.0419 H         1 UNK         0.1150 
     28 H28        -5.7949  -10.7773   34.5648 H         1 UNK         0.1150 
     29 H29        -4.4073   -7.8177   37.3528 H         1 UNK         0.1150 
     30 H30        -6.0497  -12.4094   36.4190 H         1 UNK         0.1150 
     31 H31        -6.5703   -3.5861   40.5891 H         1 UNK         0.1150 
     32 H32        -6.9227   -6.5768   37.5494 H         1 UNK         0.1150 
     33 H33        -3.1239  -10.7778   39.9485 H         1 UNK         0.0600 
     34 H34        -3.6290   -9.9782   41.4215 H         1 UNK         0.0600 
     35 H35        -4.5628  -12.2774   41.3978 H         1 UNK         0.0600 
     36 H36        -5.8737  -11.1200   41.2841 H         1 UNK         0.0600 
     37 H37        -7.8484   -0.2079   40.6372 H         1 UNK         0.0300 
     38 H38        -6.4391   -1.2601   40.6014 H         1 UNK         0.0300 
     39 H39        -7.9875   -1.8480   41.2574 H         1 UNK         0.0300 
     40 H40        -8.6275   -6.5201   34.4085 H         1 UNK         0.0300 
     41 H41        -8.6378   -7.0957   36.0700 H         1 UNK         0.0300 
     42 H42        -7.1040   -6.6598   35.2747 H         1 UNK         0.0300 
     43 H43        -8.7251   -1.3236   35.0267 H         1 UNK         0.0300 
     44 H44        -9.2783   -2.9819   34.8699 H         1 UNK         0.0300 
     45 H45        -7.5457   -2.6269   35.0799 H         1 UNK         0.0300 
@<TRIPOS>BOND
     1    1    2 ar   
     2    1    3 ar   
     3    1   27 1    
     4    2    4 ar   
     5    2   28 1    
     6    3    7 ar   
     7    3   29 1    
     8    4   12 ar   
     9    4   30 1    
    10    5    8 ar   
    11    5    9 ar   
    12    5   31 1    
    13    6    8 ar   
    14    6   10 ar   
    15    6   32 1    
    16    7   12 ar   
    17    7   13 1    
    18    8   14 1    
    19    9   11 ar   
    20    9   22 1    
    21   10   11 ar   
    22   10   23 1    
    23   11   24 1    
    24   12   26 1    
    25   13   15 1    
    26   13   20 2    
    27   14   21 2    
    28   14   25 1    
    29   15   16 1    
    30   15   33 1    
    31   15   34 1    
    32   16   26 1    
    33   16   35 1    
    34   16   36 1    
    35   17   22 1    
    36   17   37 1    
    37   17   38 1    
    38   17   39 1    
    39   18   23 1    
    40   18   40 1    
    41   18   41 1    
    42   18   42 1    
    43   19   24 1    
    44   19   43 1    
    45   19   44 1    
    46   19   45 1    
    47   20   25 1    
@<TRIPOS>SUBSTRUCTURE
     1 UNK         1 GROUP             0       ****    0 ROOT    
@<TRIPOS>MOLECULE
ZINC06229756_98
44   45    1
SMALL
USER_CHARGES


@<TRIPOS>ATOM
      1 C1        -13.9334  -21.0530   37.3506 C.ar      1 UNK        -0.1150 
      2 C2        -12.0379  -20.0002   38.4707 C.ar      1 UNK        -0.1150 
      3 C3        -13.1641  -22.2156   37.1460 C.ar      1 UNK        -0.1150 
      4 C4        -11.2711  -21.1640   38.2643 C.ar      1 UNK        -0.1150 
      5 C5        -16.8367  -14.5050   37.9468 C.ar      1 UNK        -0.1150 
      6 C6        -15.0123  -13.0499   38.6171 C.ar      1 UNK        -0.1150 
      7 C7        -15.4748  -14.3308   38.2677 C.ar      1 UNK        -0.1150 
      8 C8        -13.3721  -19.9414   38.0148 C.ar      1 UNK        -0.1150 
      9 C9        -17.7262  -13.4024   37.9284 C.ar      1 UNK         0.0850 
     10 C10       -15.8719  -11.9368   38.6242 C.ar      1 UNK         0.0850 
     11 C11       -17.2330  -12.1028   38.2355 C.ar      1 UNK         0.0850 
     12 C12       -11.8341  -22.2716   37.6031 C.ar      1 UNK         0.2200 
     13 C13       -14.5296  -15.4943   38.2986 C.2       1 UNK         0.6150 
     14 C14       -19.6035  -14.8364   37.4219 C.3       1 UNK         0.1100 
     15 C15       -16.0732   -9.7294   39.5791 C.3       1 UNK         0.1100 
     16 C16       -18.8070  -10.8194   36.9864 C.3       1 UNK         0.1100 
     17 C17       -14.1941  -18.6861   38.2363 C.3       1 UNK        -0.0050 
     18 C18       -13.9000  -17.6109   37.1757 C.3       1 UNK         0.0800 
     19 N19       -14.7293  -16.4242   37.3568 N.am      1 UNK        -0.5000 
     20 O20       -13.6064  -15.5474   39.1070 O.2       1 UNK        -0.5000 
     21 O21       -19.0705  -13.5389   37.6418 O.3       1 UNK        -0.2850 
     22 O22       -15.2774  -10.7448   38.9861 O.3       1 UNK        -0.2850 
     23 O23       -18.0575  -11.0004   38.1803 O.3       1 UNK        -0.2850 
     24 F24       -11.0973  -23.3896   37.4059 F         1 UNK        -0.2200 
     25 H25       -14.9535  -21.0222   36.9969 H         1 UNK         0.1150 
     26 H26       -11.5979  -19.1539   38.9799 H         1 UNK         0.1150 
     27 H27       -13.5900  -23.0689   36.6396 H         1 UNK         0.1150 
     28 H28       -10.2499  -21.2116   38.6121 H         1 UNK         0.1150 
     29 H29       -17.1879  -15.5011   37.7306 H         1 UNK         0.1150 
     30 H30       -13.9763  -12.9149   38.8957 H         1 UNK         0.1150 
     31 H31       -20.6765  -14.7573   37.2486 H         1 UNK         0.0300 
     32 H32       -19.4581  -15.4809   38.2900 H         1 UNK         0.0300 
     33 H33       -19.1627  -15.3047   36.5411 H         1 UNK         0.0300 
     34 H34       -16.8061  -10.1373   40.2770 H         1 UNK         0.0300 
     35 H35       -16.5819   -9.1332   38.8211 H         1 UNK         0.0300 
     36 H36       -15.4286   -9.0545   40.1417 H         1 UNK         0.0300 
     37 H37       -19.8119  -11.2291   37.0896 H         1 UNK         0.0300 
     38 H38       -18.3254  -11.2716   36.1176 H         1 UNK         0.0300 
     39 H39       -18.9096   -9.7527   36.7878 H         1 UNK         0.0300 
     40 H40       -13.9788  -18.3027   39.2353 H         1 UNK         0.0600 
     41 H41       -15.2537  -18.9439   38.2309 H         1 UNK         0.0600 
     42 H42       -12.8451  -17.3300   37.2049 H         1 UNK         0.0600 
     43 H43       -14.0861  -18.0122   36.1790 H         1 UNK         0.0600 
     44 H44       -15.4689  -16.2560   36.6941 H         1 UNK         0.3000 
@<TRIPOS>BOND
     1    1    3 ar   
     2    1    8 ar   
     3    1   25 1    
     4    2    4 ar   
     5    2    8 ar   
     6    2   26 1    
     7    3   12 ar   
     8    3   27 1    
     9    4   12 ar   
    10    4   28 1    
    11    5    7 ar   
    12    5    9 ar   
    13    5   29 1    
    14    6    7 ar   
    15    6   10 ar   
    16    6   30 1    
    17    7   13 1    
    18    8   17 1    
    19    9   11 ar   
    20    9   21 1    
    21   10   11 ar   
    22   10   22 1    
    23   11   23 1    
    24   12   24 1    
    25   13   19 am   BACKBONE|DICT|INTERRES
    26   13   20 2    
    27   14   21 1    
    28   14   31 1    
    29   14   32 1    
    30   14   33 1    
    31   15   22 1    
    32   15   34 1    
    33   15   35 1    
    34   15   36 1    
    35   16   23 1    
    36   16   37 1    
    37   16   38 1    
    38   16   39 1    
    39   17   18 1    
    40   17   40 1    
    41   17   41 1    
    42   18   19 1    
    43   18   42 1    
    44   18   43 1    
    45   19   44 1    
@<TRIPOS>SUBSTRUCTURE
     1 UNK         1 GROUP             0       ****    0 ROOT    
@<TRIPOS>MOLECULE
ZINC06366670_176
40   41    1
SMALL
USER_CHARGES


@<TRIPOS>ATOM
      1 C1        -10.5566   -8.9848   38.1574 C.ar      1 UNK        -0.1150 
      2 C2        -11.2153   -8.1992   37.1974 C.ar      1 UNK        -0.1150 
      3 C3         -9.7341   -6.9585   39.2117 C.ar      1 UNK        -0.1150 
      4 C4         -9.8044   -8.3690   39.1800 C.ar      1 UNK        -0.1150 
      5 C5        -11.1488   -6.7929   37.2208 C.ar      1 UNK         0.0850 
      6 C6        -10.3988   -6.1498   38.2520 C.ar      1 UNK         0.0850 
      7 C7         -7.9050  -13.0188   37.7589 C.2       1 UNK        -0.2209 
      8 C8         -7.7307  -14.2968   37.2737 C.2       1 UNK         0.1693 
      9 C9         -6.5851  -13.1349   35.6831 C.2       1 UNK         0.1859 
     10 C10        -9.0754   -9.1550   40.2214 C.2       1 UNK         0.5370 
     11 C11        -8.6298  -12.5636   38.9478 C.2       1 UNK         0.6250 
     12 C12        -8.2397  -15.5829   37.8519 C.3       1 UNK        -0.0650 
     13 C13        -5.7777  -12.9166   34.4521 C.3       1 UNK        -0.0650 
     14 C14       -11.7954   -4.7770   36.0187 C.3       1 UNK         0.1100 
     15 C15        -9.6178   -4.1395   39.3497 C.3       1 UNK         0.1100 
     16 C16        -9.2490  -10.6735   40.2433 C.3       1 UNK         0.2380 
     17 N17        -6.9794  -14.3409   36.0942 N.2       1 UNK        -0.4803 
     18 O18        -8.3585   -8.6317   41.0750 O.2       1 UNK        -0.4700 
     19 O19        -9.2526  -13.3288   39.6841 O.2       1 UNK        -0.4300 
     20 O20       -11.8527   -6.1824   36.1998 O.3       1 UNK        -0.2850 
     21 O21       -10.3381   -4.7708   38.3004 O.3       1 UNK        -0.2850 
     22 O22        -8.5589  -11.2431   39.1433 O.3       1 UNK        -0.3300 
     23 S23        -7.1213  -11.8336   36.7341 S.3       1 UNK         0.0010 
     24 H24       -10.6393  -10.0585   38.0793 H         1 UNK         0.1150 
     25 H25       -11.7846   -8.6827   36.4170 H         1 UNK         0.1150 
     26 H26        -9.1521   -6.5087   40.0014 H         1 UNK         0.1150 
     27 H27        -9.3282  -15.5867   37.9052 H         1 UNK         0.0600 
     28 H28        -7.9375  -16.4417   37.2521 H         1 UNK         0.0600 
     29 H29        -7.8586  -15.7377   38.8613 H         1 UNK         0.0600 
     30 H30        -6.4320  -12.8827   33.5813 H         1 UNK         0.0600 
     31 H31        -5.2313  -11.9763   34.5206 H         1 UNK         0.0600 
     32 H32        -5.0621  -13.7288   34.3235 H         1 UNK         0.0600 
     33 H33       -12.3520   -4.5125   35.1201 H         1 UNK         0.0300 
     34 H34       -10.7708   -4.4307   35.8784 H         1 UNK         0.0300 
     35 H35       -12.2585   -4.2478   36.8521 H         1 UNK         0.0300 
     36 H36        -9.6938   -3.0583   39.2357 H         1 UNK         0.0300 
     37 H37        -8.5585   -4.3980   39.3195 H         1 UNK         0.0300 
     38 H38       -10.0283   -4.3951   40.3276 H         1 UNK         0.0300 
     39 H39       -10.3105  -10.9222   40.2090 H         1 UNK         0.0300 
     40 H40        -8.8480  -11.0690   41.1776 H         1 UNK         0.0300 
@<TRIPOS>BOND
     1    1    2 ar   
     2    1    4 ar   
     3    1   24 1    
     4    2    5 ar   
     5    2   25 1    
     6    3    4 ar   
     7    3    6 ar   
     8    3   26 1    
     9    4   10 1    
    10    5    6 ar   
    11    5   20 1    
    12    6   21 1    
    13    7    8 2    
    14    7   11 1    
    15    7   23 1    
    16    8   12 1    
    17    8   17 1    
    18    9   13 1    
    19    9   17 2    
    20    9   23 1    
    21   10   16 1    
    22   10   18 2    
    23   11   19 2    
    24   11   22 1    
    25   12   27 1    
    26   12   28 1    
    27   12   29 1    
    28   13   30 1    
    29   13   31 1    
    30   13   32 1    
    31   14   20 1    
    32   14   33 1    
    33   14   34 1    
    34   14   35 1    
    35   15   21 1    
    36   15   36 1    
    37   15   37 1    
    38   15   38 1    
    39   16   22 1    
    40   16   39 1    
    41   16   40 1    
@<TRIPOS>SUBSTRUCTURE
     1 UNK         1 GROUP             0       ****    0 ROOT    
@<TRIPOS>MOLECULE
ZINC06380737_118
46   48    1
SMALL
USER_CHARGES


@<TRIPOS>ATOM
      1 C1         -4.5836  -10.5008   34.9588 C.ar      1 UNK        -0.1150 
      2 C2         -5.1023   -9.2216   35.2247 C.ar      1 UNK        -0.1150 
      3 C3         -3.6925  -11.1708   39.7086 C.ar      1 UNK        -0.1150 
      4 C4         -4.1010  -11.2928   36.0158 C.ar      1 UNK        -0.1150 
      5 C5         -5.1330   -8.7312   36.5441 C.ar      1 UNK        -0.1150 
      6 C6         -3.6559  -11.6277   38.3813 C.ar      1 UNK        -0.1150 
      7 C7         -4.1962   -9.8903   39.9969 C.ar      1 UNK        -0.1150 
      8 C8         -7.4954   -5.7511   38.5561 C.ar      1 UNK        -0.1150 
      9 C9         -6.6732   -3.7848   39.7236 C.ar      1 UNK        -0.1150 
     10 C10        -4.1320  -10.8080   37.3400 C.ar      1 UNK         0.0000 
     11 C11        -4.6427   -9.5111   37.6225 C.ar      1 UNK         0.0000 
     12 C12        -4.6586   -9.0391   38.9662 C.ar      1 UNK         0.0000 
     13 C13        -6.8264   -5.1831   39.6618 C.ar      1 UNK        -0.1150 
     14 C14        -7.9834   -4.9469   37.4967 C.ar      1 UNK         0.0850 
     15 C15        -7.1472   -2.9567   38.6795 C.ar      1 UNK         0.0850 
     16 C16        -7.7810   -3.5375   37.5558 C.ar      1 UNK         0.0850 
     17 C17        -5.1934   -7.7078   39.3149 C.2       1 UNK        -0.1150 
     18 C18        -5.7801   -7.3769   40.4839 C.2       1 UNK        -0.1150 
     19 C19        -6.2869   -6.0209   40.7742 C.2       1 UNK         0.5850 
     20 C20        -8.9470   -6.8768   36.4017 C.3       1 UNK         0.1100 
     21 C21        -6.4117   -0.9593   39.8068 C.3       1 UNK         0.1100 
     22 C22        -8.1633   -3.0594   35.2252 C.3       1 UNK         0.1100 
     23 O23        -6.2314   -5.5840   41.9218 O.2       1 UNK        -0.4700 
     24 O24        -8.6676   -5.4841   36.4234 O.3       1 UNK        -0.2850 
     25 O25        -7.0117   -1.5828   38.6814 O.3       1 UNK        -0.2850 
     26 O26        -8.2007   -2.6507   36.5840 O.3       1 UNK        -0.2850 
     27 H27        -4.5585  -10.8760   33.9459 H         1 UNK         0.1150 
     28 H28        -5.4773   -8.6129   34.4147 H         1 UNK         0.1150 
     29 H29        -3.3307  -11.8023   40.5071 H         1 UNK         0.1150 
     30 H30        -3.7089  -12.2770   35.8042 H         1 UNK         0.1150 
     31 H31        -5.5453   -7.7470   36.6966 H         1 UNK         0.1150 
     32 H32        -3.2664  -12.6126   38.1678 H         1 UNK         0.1150 
     33 H33        -4.1989   -9.5616   41.0255 H         1 UNK         0.1150 
     34 H34        -7.6408   -6.8198   38.5451 H         1 UNK         0.1150 
     35 H35        -6.1757   -3.3655   40.5856 H         1 UNK         0.1150 
     36 H36        -5.0629   -6.9360   38.5715 H         1 UNK         0.1150 
     37 H37        -5.8931   -8.1050   41.2719 H         1 UNK         0.1150 
     38 H38        -9.5241   -7.1112   35.5073 H         1 UNK         0.0300 
     39 H39        -9.5428   -7.1790   37.2640 H         1 UNK         0.0300 
     40 H40        -8.0318   -7.4688   36.3655 H         1 UNK         0.0300 
     41 H41        -6.4077    0.1204   39.6583 H         1 UNK         0.0300 
     42 H42        -5.3762   -1.2775   39.9340 H         1 UNK         0.0300 
     43 H43        -6.9700   -1.1631   40.7216 H         1 UNK         0.0300 
     44 H44        -8.0599   -2.1783   34.5923 H         1 UNK         0.0300 
     45 H45        -9.0906   -3.5554   34.9389 H         1 UNK         0.0300 
     46 H46        -7.3182   -3.7161   35.0131 H         1 UNK         0.0300 
@<TRIPOS>BOND
     1    1    2 ar   
     2    1    4 ar   
     3    1   27 1    
     4    2    5 ar   
     5    2   28 1    
     6    3    6 ar   
     7    3    7 ar   
     8    3   29 1    
     9    4   10 ar   
    10    4   30 1    
    11    5   11 ar   
    12    5   31 1    
    13    6   10 ar   
    14    6   32 1    
    15    7   12 ar   
    16    7   33 1    
    17    8   13 ar   
    18    8   14 ar   
    19    8   34 1    
    20    9   13 ar   
    21    9   15 ar   
    22    9   35 1    
    23   10   11 ar   
    24   11   12 ar   
    25   12   17 1    
    26   13   19 1    
    27   14   16 ar   
    28   14   24 1    
    29   15   16 ar   
    30   15   25 1    
    31   16   26 1    
    32   17   18 2    
    33   17   36 1    
    34   18   19 1    
    35   18   37 1    
    36   19   23 2    
    37   20   24 1    
    38   20   38 1    
    39   20   39 1    
    40   20   40 1    
    41   21   25 1    
    42   21   41 1    
    43   21   42 1    
    44   21   43 1    
    45   22   26 1    
    46   22   44 1    
    47   22   45 1    
    48   22   46 1    
@<TRIPOS>SUBSTRUCTURE
     1 UNK         1 GROUP             0       ****    0 ROOT    
@<TRIPOS>MOLECULE
ZINC06441188_17
50   53    1
SMALL
USER_CHARGES


@<TRIPOS>ATOM
      1 C1        -13.2826  -20.8523   42.9112 C.ar      1 UNK        -0.1150 
      2 C2        -14.6840  -20.2185   34.8427 C.ar      1 UNK        -0.1509 
      3 C3        -13.7440  -19.7218   43.6049 C.ar      1 UNK        -0.1150 
      4 C4        -13.6775  -21.2014   34.9866 C.ar      1 UNK        -0.1840 
      5 C5        -13.4285  -20.9228   41.5141 C.ar      1 UNK        -0.1150 
      6 C6        -15.1858  -19.5312   35.9721 C.ar      1 UNK        -0.3715 
      7 C7        -14.3439  -18.6612   42.9031 C.ar      1 UNK        -0.1150 
      8 C8        -13.1641  -21.5065   36.2649 C.ar      1 UNK        -0.3016 
      9 C9        -16.8078  -16.2407   38.9512 C.ar      1 UNK        -0.1150 
     10 C10       -15.8650  -14.2233   39.9209 C.ar      1 UNK        -0.1150 
     11 C11       -14.0353  -19.8705   40.7884 C.ar      1 UNK         0.0000 
     12 C12       -16.0481  -15.6191   39.9658 C.ar      1 UNK        -0.1150 
     13 C13       -14.6821  -19.8254   37.2559 C.ar      1 UNK         0.4773 
     14 C14       -14.4900  -18.7148   41.4939 C.ar      1 UNK         0.0850 
     15 C15       -13.6790  -20.8108   37.3702 C.ar      1 UNK         0.2571 
     16 C16       -17.3453  -15.4952   37.8868 C.ar      1 UNK         0.0850 
     17 C17       -16.3896  -13.4493   38.8683 C.ar      1 UNK         0.0850 
     18 C18       -17.1024  -14.0950   37.8180 C.ar      1 UNK         0.0850 
     19 C19       -14.1542  -20.0089   39.3238 C.2       1 UNK         0.5506 
     20 C20       -15.4622  -16.4153   41.0963 C.2       1 UNK         0.6150 
     21 C21       -19.2212  -15.5982   36.4086 C.3       1 UNK         0.1100 
     22 C22       -17.0583  -11.1943   38.3629 C.3       1 UNK         0.1100 
     23 C23       -16.5673  -13.4634   35.6491 C.3       1 UNK         0.1100 
     24 N24       -14.9757  -19.3221   38.5049 N.2       1 UNK        -0.6626 
     25 N25       -15.0932  -17.6584   40.7526 N.am      1 UNK        -0.3850 
     26 O26       -15.2851  -15.9017   42.1990 O.2       1 UNK        -0.5000 
     27 O27       -13.3429  -20.9280   38.7042 O.3       1 UNK        -0.3739 
     28 O28       -18.0560  -16.2092   36.9470 O.3       1 UNK        -0.2850 
     29 O29       -16.1209  -12.0980   38.9307 O.3       1 UNK        -0.2850 
     30 O30       -17.5016  -13.3861   36.7146 O.3       1 UNK        -0.2850 
     31 H31       -12.8193  -21.6665   43.4502 H         1 UNK         0.1150 
     32 H32       -15.0734  -19.9897   33.8595 H         1 UNK         0.1601 
     33 H33       -13.6387  -19.6639   44.6789 H         1 UNK         0.1150 
     34 H34       -13.3012  -21.7199   34.1142 H         1 UNK         0.1678 
     35 H35       -13.0726  -21.8032   40.9992 H         1 UNK         0.1150 
     36 H36       -15.9542  -18.7791   35.8666 H         1 UNK         0.2208 
     37 H37       -14.6882  -17.8147   43.4773 H         1 UNK         0.1150 
     38 H38       -12.3957  -22.2524   36.4000 H         1 UNK         0.2108 
     39 H39       -16.9964  -17.3044   38.9759 H         1 UNK         0.1150 
     40 H40       -15.3053  -13.7335   40.7058 H         1 UNK         0.1150 
     41 H41       -18.9894  -15.0278   35.5097 H         1 UNK         0.0300 
     42 H42       -19.7191  -14.9458   37.1281 H         1 UNK         0.0300 
     43 H43       -19.9315  -16.3741   36.1246 H         1 UNK         0.0300 
     44 H44       -16.8685  -11.0454   37.3001 H         1 UNK         0.0300 
     45 H45       -16.9557  -10.2239   38.8480 H         1 UNK         0.0300 
     46 H46       -18.0890  -11.5234   38.5053 H         1 UNK         0.0300 
     47 H47       -16.9205  -12.8658   34.8090 H         1 UNK         0.0300 
     48 H48       -16.4422  -14.4901   35.3022 H         1 UNK         0.0300 
     49 H49       -15.5925  -13.0768   35.9503 H         1 UNK         0.0300 
     50 H50       -15.2516  -17.8855   39.7748 H         1 UNK         0.3000 
@<TRIPOS>BOND
     1    1    3 ar   
     2    1    5 ar   
     3    1   31 1    
     4    2    4 ar   
     5    2    6 ar   
     6    2   32 1    
     7    3    7 ar   
     8    3   33 1    
     9    4    8 ar   
    10    4   34 1    
    11    5   11 ar   
    12    5   35 1    
    13    6   13 ar   
    14    6   36 1    
    15    7   14 ar   
    16    7   37 1    
    17    8   15 ar   
    18    8   38 1    
    19    9   12 ar   
    20    9   16 ar   
    21    9   39 1    
    22   10   12 ar   
    23   10   17 ar   
    24   10   40 1    
    25   11   14 ar   
    26   11   19 1    
    27   12   20 1    
    28   13   15 ar   
    29   13   24 1    
    30   14   25 1    
    31   15   27 1    
    32   16   18 ar   
    33   16   28 1    
    34   17   18 ar   
    35   17   29 1    
    36   18   30 1    
    37   19   24 2    
    38   19   27 1    
    39   20   25 am   BACKBONE|DICT|INTERRES
    40   20   26 2    
    41   21   28 1    
    42   21   41 1    
    43   21   42 1    
    44   21   43 1    
    45   22   29 1    
    46   22   44 1    
    47   22   45 1    
    48   22   46 1    
    49   23   30 1    
    50   23   47 1    
    51   23   48 1    
    52   23   49 1    
    53   25   50 1    
@<TRIPOS>SUBSTRUCTURE
     1 UNK         1 GROUP             0       ****    0 ROOT    
@<TRIPOS>MOLECULE
ZINC06490580_59
49   52    1
SMALL
USER_CHARGES


@<TRIPOS>ATOM
      1 C1        -16.6673  -16.3354   38.2973 C.ar      1 UNK        -0.1150 
      2 C2        -16.9663  -15.4076   37.2837 C.ar      1 UNK        -0.1150 
      3 C3        -13.2293  -21.7357   35.5184 C.ar      1 UNK        -0.1150 
      4 C4        -12.6797  -20.4592   35.7469 C.ar      1 UNK        -0.1150 
      5 C5        -15.8854  -14.5258   39.7075 C.ar      1 UNK        -0.1150 
      6 C6        -14.3043  -21.6631   37.6940 C.ar      1 UNK        -0.1150 
      7 C7        -16.1136  -15.9027   39.5176 C.ar      1 UNK         0.0000 
      8 C8        -13.7597  -20.3832   37.9250 C.ar      1 UNK         0.0044 
      9 C9        -14.0475  -22.3519   36.4948 C.ar      1 UNK         0.0850 
     10 C10       -12.9337  -19.7646   36.9556 C.ar      1 UNK         0.0850 
     11 C11       -16.7281  -14.0201   37.4642 C.ar      1 UNK         0.0850 
     12 C12       -16.1943  -13.5780   38.7114 C.ar      1 UNK         0.0850 
     13 C13       -15.7696  -16.8490   40.5815 C.ar      1 UNK         0.4100 
     14 C14       -15.0856  -18.5200   41.6709 C.ar      1 UNK         0.5625 
     15 C15       -14.0641  -19.7125   39.2045 C.2       1 UNK         0.3492 
     16 C16       -13.3977  -20.2022   40.4880 C.3       1 UNK         0.0836 
     17 C17       -14.3741  -24.3205   35.1602 C.3       1 UNK         0.1100 
     18 C18       -11.6934  -17.8346   36.2237 C.3       1 UNK         0.1100 
     19 C19       -17.4795  -13.5511   35.2164 C.3       1 UNK         0.1100 
     20 C20       -16.5946  -11.2117   38.4016 C.3       1 UNK         0.1100 
     21 N21       -15.9633  -16.5677   41.8785 N.2       1 UNK        -0.3633 
     22 N22       -15.5234  -17.6659   42.5912 N.2       1 UNK        -0.3633 
     23 N23       -14.8573  -18.7127   39.2142 N.2       1 UNK        -0.3897 
     24 N24       -15.2119  -18.0694   40.4084 N.pl3     1 UNK        -0.0934 
     25 O25       -14.6203  -23.5964   36.3571 O.3       1 UNK        -0.2850 
     26 O26       -12.4051  -18.5219   37.2424 O.3       1 UNK        -0.2850 
     27 O27       -16.9758  -13.0997   36.4651 O.3       1 UNK        -0.2850 
     28 O28       -15.9121  -12.2708   39.0547 O.3       1 UNK        -0.2850 
     29 S29       -14.3959  -20.0990   42.0046 S.3       1 UNK        -0.3200 
     30 H30       -16.8617  -17.3848   38.1310 H         1 UNK         0.1150 
     31 H31       -17.3758  -15.7980   36.3657 H         1 UNK         0.1150 
     32 H32       -13.0044  -22.2234   34.5823 H         1 UNK         0.1150 
     33 H33       -12.0567  -20.0365   34.9740 H         1 UNK         0.1150 
     34 H34       -15.4686  -14.1829   40.6437 H         1 UNK         0.1150 
     35 H35       -14.9347  -22.1263   38.4397 H         1 UNK         0.1150 
     36 H36       -13.0724  -21.2342   40.3593 H         1 UNK         0.0600 
     37 H37       -12.4952  -19.6099   40.6399 H         1 UNK         0.0600 
     38 H38       -14.8878  -25.2807   35.2089 H         1 UNK         0.0300 
     39 H39       -13.3103  -24.5227   35.0275 H         1 UNK         0.0300 
     40 H40       -14.7534  -23.7883   34.2868 H         1 UNK         0.0300 
     41 H41       -10.7798  -18.3630   35.9487 H         1 UNK         0.0300 
     42 H42       -11.4060  -16.8491   36.5901 H         1 UNK         0.0300 
     43 H43       -12.3099  -17.6880   35.3357 H         1 UNK         0.0300 
     44 H44       -17.6031  -12.6969   34.5510 H         1 UNK         0.0300 
     45 H45       -18.4559  -14.0247   35.3273 H         1 UNK         0.0300 
     46 H46       -16.7895  -14.2449   34.7340 H         1 UNK         0.0300 
     47 H47       -16.1533  -10.9964   37.4284 H         1 UNK         0.0300 
     48 H48       -16.5039  -10.3072   39.0027 H         1 UNK         0.0300 
     49 H49       -17.6591  -11.4209   38.2858 H         1 UNK         0.0300 
@<TRIPOS>BOND
     1    1    2 ar   
     2    1    7 ar   
     3    1   30 1    
     4    2   11 ar   
     5    2   31 1    
     6    3    4 ar   
     7    3    9 ar   
     8    3   32 1    
     9    4   10 ar   
    10    4   33 1    
    11    5    7 ar   
    12    5   12 ar   
    13    5   34 1    
    14    6    8 ar   
    15    6    9 ar   
    16    6   35 1    
    17    7   13 1    
    18    8   10 ar   
    19    8   15 1    
    20    9   25 1    
    21   10   26 1    
    22   11   12 ar   
    23   11   27 1    
    24   12   28 1    
    25   13   21 ar   
    26   13   24 ar   
    27   14   22 ar   
    28   14   24 ar   
    29   14   29 1    
    30   15   16 1    
    31   15   23 2    
    32   16   29 1    
    33   16   36 1    
    34   16   37 1    
    35   17   25 1    
    36   17   38 1    
    37   17   39 1    
    38   17   40 1    
    39   18   26 1    
    40   18   41 1    
    41   18   42 1    
    42   18   43 1    
    43   19   27 1    
    44   19   44 1    
    45   19   45 1    
    46   19   46 1    
    47   20   28 1    
    48   20   47 1    
    49   20   48 1    
    50   20   49 1    
    51   21   22 ar   
    52   23   24 1    
@<TRIPOS>SUBSTRUCTURE
     1 UNK         1 GROUP             0       ****    0 ROOT    
@<TRIPOS>MOLECULE
ZINC06584215_129
41   43    1
SMALL
USER_CHARGES


@<TRIPOS>ATOM
      1 C1         -8.0233  -15.5286   36.7011 C.ar      1 UNK         0.0055 
      2 C2         -9.0679  -15.5998   35.7597 C.ar      1 UNK        -0.3011 
      3 C3         -8.2398  -14.9109   37.9489 C.ar      1 UNK        -0.4461 
      4 C4        -10.3291  -15.0540   36.0663 C.ar      1 UNK        -0.1407 
      5 C5        -13.5964  -10.8467   38.9457 C.ar      1 UNK        -0.1150 
      6 C6        -12.0065   -9.0202   39.1044 C.ar      1 UNK        -0.1150 
      7 C7        -12.3966  -10.3245   39.4715 C.ar      1 UNK        -0.1150 
      8 C8         -9.4912  -14.3532   38.2832 C.ar      1 UNK         0.6314 
      9 C9        -14.3747  -10.0973   38.0329 C.ar      1 UNK         0.0850 
     10 C10       -12.7726   -8.2387   38.2041 C.ar      1 UNK         0.0850 
     11 C11       -13.9611   -8.7997   37.6506 C.ar      1 UNK         0.0850 
     12 C12       -10.5331  -14.4385   37.3152 C.ar      1 UNK        -0.1027 
     13 C13       -11.0986  -13.2933   39.4326 C.2       1 UNK         0.2008 
     14 C14       -11.5481  -11.0793   40.4429 C.2       1 UNK         0.5850 
     15 C15       -15.9544  -11.8989   37.7522 C.3       1 UNK         0.1100 
     16 C16       -11.2346   -6.3855   38.4341 C.3       1 UNK         0.1100 
     17 C17       -14.2776   -7.1629   35.8935 C.3       1 UNK         0.1100 
     18 C18       -11.7403  -12.5952   40.5934 C.3       1 UNK        -0.0050 
     19 N19        -9.8288  -13.7211   39.4758 N.2       1 UNK        -0.5991 
     20 O20       -10.7013  -10.5229   41.1430 O.2       1 UNK        -0.4700 
     21 O21       -15.5444  -10.5694   37.4710 O.3       1 UNK        -0.2850 
     22 O22       -12.4118   -6.9474   37.8709 O.3       1 UNK        -0.2850 
     23 O23       -14.8007   -8.1582   36.7589 O.3       1 UNK        -0.2850 
     24 S24       -11.9914  -13.6885   37.9534 S.3       1 UNK        -0.0839 
     25 H25        -7.0543  -15.9471   36.4669 H         1 UNK         0.1296 
     26 H26        -8.8996  -16.0742   34.8018 H         1 UNK         0.1749 
     27 H27        -7.4419  -14.8537   38.6728 H         1 UNK         0.2114 
     28 H28       -11.1383  -15.1033   35.3526 H         1 UNK         0.2050 
     29 H29       -13.9221  -11.8287   39.2422 H         1 UNK         0.1150 
     30 H30       -11.0988   -8.6300   39.5399 H         1 UNK         0.1150 
     31 H31       -16.8654  -12.1175   37.1952 H         1 UNK         0.0300 
     32 H32       -16.1777  -12.0318   38.8115 H         1 UNK         0.0300 
     33 H33       -15.1991  -12.6235   37.4445 H         1 UNK         0.0300 
     34 H34       -11.1085   -5.3702   38.0586 H         1 UNK         0.0300 
     35 H35       -10.3460   -6.9516   38.1512 H         1 UNK         0.0300 
     36 H36       -11.2997   -6.3270   39.5214 H         1 UNK         0.0300 
     37 H37       -14.9465   -7.0477   35.0409 H         1 UNK         0.0300 
     38 H38       -13.2950   -7.4323   35.5034 H         1 UNK         0.0300 
     39 H39       -14.2232   -6.1954   36.3929 H         1 UNK         0.0300 
     40 H40       -12.7917  -12.8644   40.6673 H         1 UNK         0.0600 
     41 H41       -11.2592  -12.9240   41.5146 H         1 UNK         0.0600 
@<TRIPOS>BOND
     1    1    2 ar   
     2    1    3 ar   
     3    1   25 1    
     4    2    4 ar   
     5    2   26 1    
     6    3    8 ar   
     7    3   27 1    
     8    4   12 ar   
     9    4   28 1    
    10    5    7 ar   
    11    5    9 ar   
    12    5   29 1    
    13    6    7 ar   
    14    6   10 ar   
    15    6   30 1    
    16    7   14 1    
    17    8   12 ar   
    18    8   19 1    
    19    9   11 ar   
    20    9   21 1    
    21   10   11 ar   
    22   10   22 1    
    23   11   23 1    
    24   12   24 1    
    25   13   18 1    
    26   13   19 2    
    27   13   24 1    
    28   14   18 1    
    29   14   20 2    
    30   15   21 1    
    31   15   31 1    
    32   15   32 1    
    33   15   33 1    
    34   16   22 1    
    35   16   34 1    
    36   16   35 1    
    37   16   36 1    
    38   17   23 1    
    39   17   37 1    
    40   17   38 1    
    41   17   39 1    
    42   18   40 1    
    43   18   41 1    
@<TRIPOS>SUBSTRUCTURE
     1 UNK         1 GROUP             0       ****    0 ROOT    
@<TRIPOS>MOLECULE
ZINC06648668_98
48   51    1
SMALL
USER_CHARGES


@<TRIPOS>ATOM
      1 C1         -9.5505   -7.3217   37.9588 C.ar      1 UNK        -0.1150 
      2 C2         -8.4898   -5.7516   39.4756 C.ar      1 UNK        -0.1150 
      3 C3         -7.4011  -12.0248   36.2085 C.ar      1 UNK        -0.3696 
      4 C4         -5.4542  -12.1467   38.2675 C.ar      1 UNK        -0.3290 
      5 C5         -8.9441   -7.0591   39.2048 C.ar      1 UNK        -0.1150 
      6 C6         -7.6610  -11.3939   37.4409 C.ar      1 UNK         0.4982 
      7 C7         -6.6671  -11.4645   38.4600 C.ar      1 UNK         0.2299 
      8 C8         -6.1838  -12.7014   35.9940 C.ar      1 UNK         0.1024 
      9 C9         -5.2159  -12.7807   37.0338 C.ar      1 UNK         0.0790 
     10 C10        -9.7072   -6.2974   36.9969 C.ar      1 UNK         0.0850 
     11 C11        -8.6382   -4.7023   38.5342 C.ar      1 UNK         0.0850 
     12 C12        -9.2730   -4.9832   37.2884 C.ar      1 UNK         0.0850 
     13 C13        -8.4259  -10.3091   39.1066 C.ar      1 UNK         0.3638 
     14 C14        -8.7429   -8.1221   40.2352 C.2       1 UNK         0.5850 
     15 C15        -4.6036  -13.6273   34.5163 C.3       1 UNK         0.1400 
     16 C16        -4.0216  -14.3446   35.7438 C.3       1 UNK         0.1400 
     17 C17       -10.5906   -7.8369   35.3659 C.3       1 UNK         0.1100 
     18 C18        -7.4981   -3.1571   40.0059 C.3       1 UNK         0.1100 
     19 C19        -9.6515   -2.6905   36.6127 C.3       1 UNK         0.1100 
     20 C20        -9.3350   -9.5186   40.0017 C.3       1 UNK        -0.0050 
     21 N21        -8.7648  -10.6722   37.8684 N.2       1 UNK        -0.6787 
     22 N22        -7.2211  -10.7583   39.5151 N.pl3     1 UNK        -0.6257 
     23 O23        -8.1315   -7.9237   41.2872 O.2       1 UNK        -0.4700 
     24 O24        -5.9613  -13.2795   34.7660 O.3       1 UNK        -0.3000 
     25 O25        -4.0362  -13.4657   36.8639 O.3       1 UNK        -0.3000 
     26 O26       -10.2841   -6.5069   35.7599 O.3       1 UNK        -0.2850 
     27 O27        -8.1616   -3.4289   38.7797 O.3       1 UNK        -0.2850 
     28 O28        -9.4811   -4.0597   36.2814 O.3       1 UNK        -0.2850 
     29 H29        -9.8926   -8.3175   37.7329 H         1 UNK         0.1150 
     30 H30        -8.0141   -5.5736   40.4281 H         1 UNK         0.1150 
     31 H31        -8.1364  -11.9754   35.4227 H         1 UNK         0.2091 
     32 H32        -4.7121  -12.2006   39.0476 H         1 UNK         0.1984 
     33 H33        -4.0287  -12.7297   34.2837 H         1 UNK         0.0300 
     34 H34        -4.5606  -14.2749   33.6406 H         1 UNK         0.0300 
     35 H35        -4.5931  -15.2450   35.9732 H         1 UNK         0.0300 
     36 H36        -2.9942  -14.6539   35.5514 H         1 UNK         0.0300 
     37 H37       -10.9554   -7.8312   34.3390 H         1 UNK         0.0300 
     38 H38       -11.3745   -8.2672   35.9901 H         1 UNK         0.0300 
     39 H39        -9.7085   -8.4787   35.3978 H         1 UNK         0.0300 
     40 H40        -7.1869   -2.1127   40.0199 H         1 UNK         0.0300 
     41 H41        -6.6013   -3.7677   40.1196 H         1 UNK         0.0300 
     42 H42        -8.1573   -3.3137   40.8607 H         1 UNK         0.0300 
     43 H43       -10.1816   -2.1932   35.8009 H         1 UNK         0.0300 
     44 H44        -8.6898   -2.1896   36.7241 H         1 UNK         0.0300 
     45 H45       -10.2432   -2.5568   37.5194 H         1 UNK         0.0300 
     46 H46       -10.3289   -9.4469   39.5613 H         1 UNK         0.0600 
     47 H47        -9.4408  -10.0342   40.9558 H         1 UNK         0.0600 
     48 H48        -6.8129  -10.5812   40.4219 H         1 UNK         0.4072 
@<TRIPOS>BOND
     1    1    5 ar   
     2    1   10 ar   
     3    1   29 1    
     4    2    5 ar   
     5    2   11 ar   
     6    2   30 1    
     7    3    6 ar   
     8    3    8 ar   
     9    3   31 1    
    10    4    7 ar   
    11    4    9 ar   
    12    4   32 1    
    13    5   14 1    
    14    6    7 ar   
    15    6   21 ar   
    16    7   22 ar   
    17    8    9 ar   
    18    8   24 1    
    19    9   25 1    
    20   10   12 ar   
    21   10   26 1    
    22   11   12 ar   
    23   11   27 1    
    24   12   28 1    
    25   13   20 1    
    26   13   21 ar   
    27   13   22 ar   
    28   14   20 1    
    29   14   23 2    
    30   15   16 1    
    31   15   24 1    
    32   15   33 1    
    33   15   34 1    
    34   16   25 1    
    35   16   35 1    
    36   16   36 1    
    37   17   26 1    
    38   17   37 1    
    39   17   38 1    
    40   17   39 1    
    41   18   27 1    
    42   18   40 1    
    43   18   41 1    
    44   18   42 1    
    45   19   28 1    
    46   19   43 1    
    47   19   44 1    
    48   19   45 1    
    49   20   46 1    
    50   20   47 1    
    51   22   48 1    
@<TRIPOS>SUBSTRUCTURE
     1 UNK         1 GROUP             0       ****    0 ROOT    
@<TRIPOS>MOLECULE
ZINC06668667_57
43   45    1
SMALL
USER_CHARGES


@<TRIPOS>ATOM
      1 C1         -7.4673   -5.2830   38.8589 C.ar      1 UNK        -0.1150 
      2 C2         -8.7991   -7.2774   38.4215 C.ar      1 UNK        -0.1150 
      3 C3         -9.1313   -5.2723   37.0885 C.ar      1 UNK        -0.1150 
      4 C4         -7.7892   -6.6239   39.1611 C.ar      1 UNK         0.0000 
      5 C5         -8.1388   -4.5937   37.8214 C.ar      1 UNK         0.0850 
      6 C6         -9.4730   -6.6087   37.3719 C.ar      1 UNK         0.0850 
      7 C7         -7.0641   -7.3102   40.2342 C.ar      1 UNK         0.4100 
      8 C8         -6.0244   -8.7200   41.4117 C.ar      1 UNK         0.5625 
      9 C9         -6.6253  -10.8092   39.4776 C.2       1 UNK         0.3175 
     10 C10        -5.6097  -12.0120   37.5394 C.2       1 UNK         0.5100 
     11 C11        -6.1549  -11.3606   40.8205 C.3       1 UNK         0.0836 
     12 C12        -4.7469  -10.1794   34.4801 C.3       1 UNK        -0.1800 
     13 C13        -6.9273   -2.5611   38.2275 C.3       1 UNK         0.1100 
     14 C14       -10.7853   -8.5434   36.8220 C.3       1 UNK         0.1100 
     15 C15        -6.8518  -11.8595   38.4097 C.3       1 UNK        -0.0839 
     16 C16        -4.4889  -11.1794   35.6102 C.3       1 UNK         0.1900 
     17 N17        -6.6764   -6.6706   41.3468 N.2       1 UNK        -0.3633 
     18 N18        -5.9972   -7.5922   42.1158 N.2       1 UNK        -0.3633 
     19 N19        -6.8824   -9.5827   39.2527 N.2       1 UNK        -0.3897 
     20 N20        -6.6832   -8.6102   40.2405 N.pl3     1 UNK        -0.0934 
     21 O21        -4.7409  -12.8405   37.8088 O.2       1 UNK        -0.4300 
     22 O22        -7.8848   -3.2858   37.4687 O.3       1 UNK        -0.2850 
     23 O23       -10.4567   -7.1810   36.5943 O.3       1 UNK        -0.2850 
     24 O24        -5.5936  -11.1681   36.4974 O.3       1 UNK        -0.3300 
     25 S25        -5.2519  -10.2178   41.9096 S.3       1 UNK        -0.3200 
     26 H26        -6.6952   -4.8028   39.4412 H         1 UNK         0.1150 
     27 H27        -9.0464   -8.2947   38.6774 H         1 UNK         0.1150 
     28 H28        -9.6441   -4.7540   36.2916 H         1 UNK         0.1150 
     29 H29        -7.0328  -11.7071   41.3654 H         1 UNK         0.0600 
     30 H30        -5.5242  -12.2352   40.6583 H         1 UNK         0.0600 
     31 H31        -5.6467  -10.4413   33.9228 H         1 UNK         0.0600 
     32 H32        -4.8759   -9.1701   34.8720 H         1 UNK         0.0600 
     33 H33        -3.9123  -10.1614   33.7792 H         1 UNK         0.0600 
     34 H34        -6.8639   -1.5415   37.8475 H         1 UNK         0.0300 
     35 H35        -5.9346   -3.0057   38.1452 H         1 UNK         0.0300 
     36 H36        -7.2119   -2.5032   39.2791 H         1 UNK         0.0300 
     37 H37       -11.5507   -8.8520   36.1102 H         1 UNK         0.0300 
     38 H38       -11.1876   -8.6939   37.8246 H         1 UNK         0.0300 
     39 H39        -9.9201   -9.1922   36.6773 H         1 UNK         0.0300 
     40 H40        -7.6995  -11.5735   37.7872 H         1 UNK         0.0600 
     41 H41        -7.0921  -12.8174   38.8702 H         1 UNK         0.0600 
     42 H42        -3.5791  -10.9125   36.1500 H         1 UNK         0.0300 
     43 H43        -4.3479  -12.1816   35.2022 H         1 UNK         0.0300 
@<TRIPOS>BOND
     1    1    4 ar   
     2    1    5 ar   
     3    1   26 1    
     4    2    4 ar   
     5    2    6 ar   
     6    2   27 1    
     7    3    5 ar   
     8    3    6 ar   
     9    3   28 1    
    10    4    7 1    
    11    5   22 1    
    12    6   23 1    
    13    7   17 ar   
    14    7   20 ar   
    15    8   18 ar   
    16    8   20 ar   
    17    8   25 1    
    18    9   11 1    
    19    9   15 1    
    20    9   19 2    
    21   10   15 1    
    22   10   21 2    
    23   10   24 1    
    24   11   25 1    
    25   11   29 1    
    26   11   30 1    
    27   12   16 1    
    28   12   31 1    
    29   12   32 1    
    30   12   33 1    
    31   13   22 1    
    32   13   34 1    
    33   13   35 1    
    34   13   36 1    
    35   14   23 1    
    36   14   37 1    
    37   14   38 1    
    38   14   39 1    
    39   15   40 1    
    40   15   41 1    
    41   16   24 1    
    42   16   42 1    
    43   16   43 1    
    44   17   18 ar   
    45   19   20 1    
@<TRIPOS>SUBSTRUCTURE
     1 UNK         1 GROUP             0       ****    0 ROOT    
@<TRIPOS>MOLECULE
ZINC06736673_8
41   44    1
SMALL
USER_CHARGES


@<TRIPOS>ATOM
      1 C1         -5.9168  -11.5304   35.1823 C.ar      1 UNK        -0.1150 
      2 C2         -8.7353   -6.0193   39.5481 C.ar      1 UNK        -0.1150 
      3 C3         -9.4991   -8.0486   38.4481 C.ar      1 UNK        -0.1150 
      4 C4         -6.1266  -10.9572   36.4503 C.ar      1 UNK        -0.1150 
      5 C5         -5.9818  -12.9268   35.0164 C.ar      1 UNK        -0.1150 
      6 C6         -9.4414   -5.2460   38.6063 C.ar      1 UNK        -0.1150 
      7 C7        -10.2070   -7.2751   37.5068 C.ar      1 UNK        -0.1150 
      8 C8         -6.4693  -13.1809   37.3880 C.ar      1 UNK        -0.1150 
      9 C9         -8.7547   -7.4284   39.4756 C.ar      1 UNK         0.0000 
     10 C10        -6.3982  -11.7805   37.5670 C.ar      1 UNK         0.0044 
     11 C11       -10.1829   -5.8602   37.5782 C.ar      1 UNK         0.0850 
     12 C12        -6.2624  -13.7655   36.1229 C.ar      1 UNK         0.0850 
     13 C13        -8.0082   -8.2164   40.4604 C.ar      1 UNK         0.4100 
     14 C14        -6.7998   -9.6550   41.4154 C.ar      1 UNK         0.5625 
     15 C15        -6.6312  -11.1787   38.9073 C.2       1 UNK         0.3492 
     16 C16        -6.3250  -11.9773   40.1795 C.3       1 UNK         0.0836 
     17 C17       -11.6149   -5.6180   35.6677 C.3       1 UNK         0.1100 
     18 C18        -6.1583  -15.7598   34.7912 C.3       1 UNK         0.1100 
     19 N19        -7.9444   -7.8658   41.7530 N.2       1 UNK        -0.3633 
     20 N20        -7.1539   -8.8092   42.3784 N.2       1 UNK        -0.3633 
     21 N21        -7.1006   -9.9929   38.9822 N.2       1 UNK        -0.3897 
     22 N22        -7.3032   -9.3435   40.2071 N.pl3     1 UNK        -0.0934 
     23 O23       -10.8433   -5.0270   36.7026 O.3       1 UNK        -0.2850 
     24 O24        -6.3533  -15.1380   36.0534 O.3       1 UNK        -0.2850 
     25 S25        -5.7546  -11.0448   41.6330 S.3       1 UNK        -0.3200 
     26 H26        -5.7062  -10.8961   34.3333 H         1 UNK         0.1150 
     27 H27        -8.1752   -5.5288   40.3318 H         1 UNK         0.1150 
     28 H28        -9.5351   -9.1256   38.3801 H         1 UNK         0.1150 
     29 H29        -6.0741   -9.8824   36.5596 H         1 UNK         0.1150 
     30 H30        -5.8162  -13.3288   34.0284 H         1 UNK         0.1150 
     31 H31        -9.4170   -4.1682   38.6735 H         1 UNK         0.1150 
     32 H32       -10.7625   -7.7927   36.7401 H         1 UNK         0.1150 
     33 H33        -6.6947  -13.8347   38.2175 H         1 UNK         0.1150 
     34 H34        -7.2289  -12.5165   40.4627 H         1 UNK         0.0600 
     35 H35        -5.5653  -12.7286   39.9651 H         1 UNK         0.0600 
     36 H36       -12.0753   -4.8314   35.0700 H         1 UNK         0.0300 
     37 H37       -12.4170   -6.2369   36.0721 H         1 UNK         0.0300 
     38 H38       -10.9944   -6.2182   35.0009 H         1 UNK         0.0300 
     39 H39        -6.2704  -16.8385   34.9003 H         1 UNK         0.0300 
     40 H40        -5.1564  -15.5700   34.4039 H         1 UNK         0.0300 
     41 H41        -6.8975  -15.4245   34.0623 H         1 UNK         0.0300 
@<TRIPOS>BOND
     1    1    4 ar   
     2    1    5 ar   
     3    1   26 1    
     4    2    6 ar   
     5    2    9 ar   
     6    2   27 1    
     7    3    7 ar   
     8    3    9 ar   
     9    3   28 1    
    10    4   10 ar   
    11    4   29 1    
    12    5   12 ar   
    13    5   30 1    
    14    6   11 ar   
    15    6   31 1    
    16    7   11 ar   
    17    7   32 1    
    18    8   10 ar   
    19    8   12 ar   
    20    8   33 1    
    21    9   13 1    
    22   10   15 1    
    23   11   23 1    
    24   12   24 1    
    25   13   19 ar   
    26   13   22 ar   
    27   14   20 ar   
    28   14   22 ar   
    29   14   25 1    
    30   15   16 1    
    31   15   21 2    
    32   16   25 1    
    33   16   34 1    
    34   16   35 1    
    35   17   23 1    
    36   17   36 1    
    37   17   37 1    
    38   17   38 1    
    39   18   24 1    
    40   18   39 1    
    41   18   40 1    
    42   18   41 1    
    43   19   20 ar   
    44   21   22 1    
@<TRIPOS>SUBSTRUCTURE
     1 UNK         1 GROUP             0       ****    0 ROOT    
@<TRIPOS>MOLECULE
ZINC06747717_19
43   45    1
SMALL
USER_CHARGES


@<TRIPOS>ATOM
      1 C1        -12.7471  -20.2246   37.8184 C.ar      1 UNK        -0.1150 
      2 C2        -15.0959  -20.0348   37.1982 C.ar      1 UNK        -0.1150 
      3 C3        -12.3956  -20.3270   36.4578 C.ar      1 UNK        -0.1150 
      4 C4        -14.7443  -20.1363   35.8375 C.ar      1 UNK        -0.1150 
      5 C5        -16.0707  -14.6905   38.2387 C.ar      1 UNK        -0.1150 
      6 C6        -17.9287  -16.2480   38.3819 C.ar      1 UNK        -0.1150 
      7 C7        -14.0989  -20.0710   38.1993 C.ar      1 UNK         0.0000 
      8 C8        -16.5478  -15.9876   38.5071 C.ar      1 UNK        -0.1150 
      9 C9        -16.9480  -13.6530   37.8733 C.ar      1 UNK         0.0850 
     10 C10       -18.8317  -15.2327   38.0153 C.ar      1 UNK         0.0850 
     11 C11       -18.3364  -13.9293   37.7250 C.ar      1 UNK         0.0850 
     12 C12       -13.3941  -20.2809   35.4670 C.ar      1 UNK         0.1800 
     13 C13       -14.4574  -19.9624   39.6193 C.2       1 UNK         0.2721 
     14 C14       -15.3376  -19.0616   40.2954 C.2       1 UNK         0.3571 
     15 C15       -15.5834  -17.0729   38.8826 C.2       1 UNK         0.6150 
     16 C16       -17.0867  -11.2708   38.0707 C.3       1 UNK         0.1100 
     17 C17       -21.1623  -14.6548   38.1896 C.3       1 UNK         0.1100 
     18 C18       -19.1811  -12.8970   35.8239 C.3       1 UNK         0.1100 
     19 N19       -13.9994  -20.8379   40.4812 N.2       1 UNK        -0.2850 
     20 N20       -15.4654  -19.4057   41.5507 N.2       1 UNK        -0.2850 
     21 N21       -16.0558  -17.9772   39.7484 N.am      1 UNK        -0.3850 
     22 O22       -14.4291  -17.0623   38.4635 O.2       1 UNK        -0.5000 
     23 O23       -14.6128  -20.5105   41.7022 O.3       1 UNK         0.0258 
     24 O24       -16.3694  -12.4232   37.6487 O.3       1 UNK        -0.2850 
     25 O25       -20.1524  -15.6212   37.9333 O.3       1 UNK        -0.2850 
     26 O26       -19.1787  -12.9617   37.2421 O.3       1 UNK        -0.2850 
     27 Cl27      -12.9656  -20.4066   33.8015 Cl        1 UNK        -0.1800 
     28 H28       -11.9749  -20.2574   38.5739 H         1 UNK         0.1150 
     29 H29       -16.1357  -19.9292   37.4693 H         1 UNK         0.1150 
     30 H30       -11.3596  -20.4387   36.1733 H         1 UNK         0.1150 
     31 H31       -15.5083  -20.1042   35.0747 H         1 UNK         0.1150 
     32 H32       -15.0130  -14.4806   38.3205 H         1 UNK         0.1150 
     33 H33       -18.3211  -17.2390   38.5563 H         1 UNK         0.1150 
     34 H34       -17.7330  -10.8944   37.2783 H         1 UNK         0.0300 
     35 H35       -16.3777  -10.4792   38.3120 H         1 UNK         0.0300 
     36 H36       -17.6857  -11.4576   38.9636 H         1 UNK         0.0300 
     37 H37       -22.0730  -15.1663   38.5008 H         1 UNK         0.0300 
     38 H38       -21.4038  -14.0860   37.2919 H         1 UNK         0.0300 
     39 H39       -20.8830  -13.9686   38.9907 H         1 UNK         0.0300 
     40 H40       -19.8529  -12.1043   35.4953 H         1 UNK         0.0300 
     41 H41       -19.5292  -13.8350   35.3888 H         1 UNK         0.0300 
     42 H42       -18.1872  -12.6790   35.4303 H         1 UNK         0.0300 
     43 H43       -16.9441  -17.7708   40.1727 H         1 UNK         0.3000 
@<TRIPOS>BOND
     1    1    3 ar   
     2    1    7 ar   
     3    1   28 1    
     4    2    4 ar   
     5    2    7 ar   
     6    2   29 1    
     7    3   12 ar   
     8    3   30 1    
     9    4   12 ar   
    10    4   31 1    
    11    5    8 ar   
    12    5    9 ar   
    13    5   32 1    
    14    6    8 ar   
    15    6   10 ar   
    16    6   33 1    
    17    7   13 1    
    18    8   15 1    
    19    9   11 ar   
    20    9   24 1    
    21   10   11 ar   
    22   10   25 1    
    23   11   26 1    
    24   12   27 1    
    25   13   14 1    
    26   13   19 2    
    27   14   20 2    
    28   14   21 1    
    29   15   21 am   BACKBONE|DICT|INTERRES
    30   15   22 2    
    31   16   24 1    
    32   16   34 1    
    33   16   35 1    
    34   16   36 1    
    35   17   25 1    
    36   17   37 1    
    37   17   38 1    
    38   17   39 1    
    39   18   26 1    
    40   18   40 1    
    41   18   41 1    
    42   18   42 1    
    43   19   23 1    
    44   20   23 1    
    45   21   43 1    
@<TRIPOS>SUBSTRUCTURE
     1 UNK         1 GROUP             0       ****    0 ROOT    
@<TRIPOS>MOLECULE
ZINC06747741_45
42   44    1
SMALL
USER_CHARGES


@<TRIPOS>ATOM
      1 C1        -11.2781   -5.8050   39.0784 C.ar      1 UNK        -0.1150 
      2 C2        -11.4554   -5.6644   37.6906 C.ar      1 UNK        -0.1150 
      3 C3         -7.7745  -13.0483   35.2702 C.ar      1 UNK        -0.1150 
      4 C4         -7.7012  -14.4427   35.0987 C.ar      1 UNK        -0.1150 
      5 C5         -7.7811  -12.4946   36.5647 C.ar      1 UNK        -0.1150 
      6 C6        -10.6509   -6.9533   39.5953 C.ar      1 UNK        -0.1150 
      7 C7        -11.0064   -6.6727   36.8170 C.ar      1 UNK        -0.1150 
      8 C8         -7.6463  -14.7297   37.5212 C.ar      1 UNK        -0.1150 
      9 C9         -7.6402  -15.2869   36.2253 C.ar      1 UNK        -0.1150 
     10 C10        -7.7095  -13.3276   37.7067 C.ar      1 UNK         0.2000 
     11 C11       -10.1965   -7.9695   38.7216 C.ar      1 UNK         0.0850 
     12 C12       -10.3737   -7.8350   37.3253 C.ar      1 UNK         0.0850 
     13 C13        -7.3250  -12.8929   41.3965 C.ar      1 UNK        -0.1150 
     14 C14        -7.2129  -13.3994   40.1568 C.ar      1 UNK         0.0075 
     15 C15        -8.0072  -11.6030   41.6030 C.ar      1 UNK         0.4700 
     16 C16        -8.4960  -10.9371   40.3427 C.ar      1 UNK         0.4529 
     17 C17        -9.1775   -9.5937   40.3678 C.2       1 UNK         0.3238 
     18 C18        -7.5705  -16.7906   36.0519 C.3       1 UNK        -0.0650 
     19 C19       -10.0880   -8.7696   35.1283 C.3       1 UNK         0.1100 
     20 N20        -8.3333  -11.5222   39.1859 N.2       1 UNK        -0.3551 
     21 N21        -7.7209  -12.7515   39.0162 N.pl3     1 UNK        -0.2441 
     22 N22        -9.5568   -9.1622   39.1466 N.am      1 UNK        -0.3850 
     23 O23        -8.1419  -11.1422   42.7380 O.2       1 UNK        -0.4700 
     24 O24        -9.3664   -8.9506   41.4000 O.2       1 UNK        -0.5000 
     25 O25        -9.9071   -8.8669   36.5329 O.3       1 UNK        -0.2850 
     26 H26       -11.6227   -5.0334   39.7515 H         1 UNK         0.1150 
     27 H27       -11.9372   -4.7817   37.2958 H         1 UNK         0.1150 
     28 H28        -7.8242  -12.3997   34.4079 H         1 UNK         0.1150 
     29 H29        -7.6974  -14.8577   34.1007 H         1 UNK         0.1150 
     30 H30        -7.8331  -11.4209   36.6701 H         1 UNK         0.1150 
     31 H31       -10.5323   -7.0312   40.6649 H         1 UNK         0.1150 
     32 H32       -11.1605   -6.5285   35.7591 H         1 UNK         0.1150 
     33 H33        -7.6228  -15.3987   38.3669 H         1 UNK         0.1150 
     34 H34        -6.9125  -13.3980   42.2559 H         1 UNK         0.1150 
     35 H35        -6.6855  -14.3214   39.9637 H         1 UNK         0.1150 
     36 H36        -6.6029  -17.1643   36.3878 H         1 UNK         0.0600 
     37 H37        -8.3502  -17.2785   36.6375 H         1 UNK         0.0600 
     38 H38        -7.7024  -17.0791   35.0086 H         1 UNK         0.0600 
     39 H39        -9.6822   -9.6618   34.6513 H         1 UNK         0.0300 
     40 H40        -9.5613   -7.9070   34.7178 H         1 UNK         0.0300 
     41 H41       -11.1451   -8.7079   34.8660 H         1 UNK         0.0300 
     42 H42        -9.3291   -9.7981   38.3925 H         1 UNK         0.3000 
@<TRIPOS>BOND
     1    1    2 ar   
     2    1    6 ar   
     3    1   26 1    
     4    2    7 ar   
     5    2   27 1    
     6    3    4 ar   
     7    3    5 ar   
     8    3   28 1    
     9    4    9 ar   
    10    4   29 1    
    11    5   10 ar   
    12    5   30 1    
    13    6   11 ar   
    14    6   31 1    
    15    7   12 ar   
    16    7   32 1    
    17    8    9 ar   
    18    8   10 ar   
    19    8   33 1    
    20    9   18 1    
    21   10   21 1    
    22   11   12 ar   
    23   11   22 1    
    24   12   25 1    
    25   13   14 ar   
    26   13   15 ar   
    27   13   34 1    
    28   14   21 ar   
    29   14   35 1    
    30   15   16 ar   
    31   15   23 2    
    32   16   17 1    
    33   16   20 ar   
    34   17   22 am   BACKBONE|DICT|INTERRES
    35   17   24 2    
    36   18   36 1    
    37   18   37 1    
    38   18   38 1    
    39   19   25 1    
    40   19   39 1    
    41   19   40 1    
    42   19   41 1    
    43   20   21 ar   
    44   22   42 1    
@<TRIPOS>SUBSTRUCTURE
     1 UNK         1 GROUP             0       ****    0 ROOT    
@<TRIPOS>MOLECULE
ZINC06747753_89
46   48    1
SMALL
USER_CHARGES


@<TRIPOS>ATOM
      1 C1         -7.6318  -12.8809   35.2491 C.ar      1 UNK        -0.1150 
      2 C2         -7.6200  -14.2875   35.2295 C.ar      1 UNK        -0.1150 
      3 C3         -7.4757  -12.1899   36.4659 C.ar      1 UNK        -0.1150 
      4 C4        -10.8581   -5.1895   37.1790 C.ar      1 UNK        -0.1150 
      5 C5        -10.5654   -6.3242   36.4005 C.ar      1 UNK        -0.1150 
      6 C6         -7.3006  -14.3110   37.6488 C.ar      1 UNK        -0.1150 
      7 C7         -9.8246   -6.2375   39.1129 C.ar      1 UNK        -0.1150 
      8 C8         -7.4581  -15.0058   36.4311 C.ar      1 UNK        -0.1150 
      9 C9         -7.2995  -12.8956   37.6800 C.ar      1 UNK         0.2000 
     10 C10        -9.5260   -7.3820   38.3353 C.ar      1 UNK         0.0850 
     11 C11       -10.4949   -5.1306   38.5369 C.ar      1 UNK         0.0850 
     12 C12        -9.8959   -7.4320   36.9731 C.ar      1 UNK         0.0850 
     13 C13        -6.4651  -12.0643   41.2255 C.ar      1 UNK        -0.1150 
     14 C14        -6.5212  -12.7148   40.0508 C.ar      1 UNK         0.0075 
     15 C15        -7.0762  -10.7291   41.3549 C.ar      1 UNK         0.4700 
     16 C16        -7.7001  -10.1943   40.0923 C.ar      1 UNK         0.4529 
     17 C17        -8.3396   -8.8311   40.0368 C.2       1 UNK         0.3238 
     18 C18        -7.4556  -16.5211   36.4223 C.3       1 UNK        -0.0650 
     19 C19       -10.4816   -3.8948   40.5943 C.3       1 UNK         0.1100 
     20 C20        -9.9548   -8.6719   34.9131 C.3       1 UNK         0.1100 
     21 N21        -7.6970  -10.9148   39.0026 N.2       1 UNK        -0.3551 
     22 N22        -7.1435  -12.1792   38.9083 N.pl3     1 UNK        -0.2441 
     23 N23        -8.8610   -8.5354   38.8276 N.am      1 UNK        -0.3850 
     24 O24        -7.0529  -10.1319   42.4325 O.2       1 UNK        -0.4700 
     25 O25        -8.3803   -8.0620   40.9970 O.2       1 UNK        -0.5000 
     26 O26       -10.8247   -3.9789   39.2182 O.3       1 UNK        -0.2850 
     27 O27        -9.5720   -8.5813   36.2772 O.3       1 UNK        -0.2850 
     28 H28        -7.7591  -12.3286   34.3295 H         1 UNK         0.1150 
     29 H29        -7.7403  -14.8084   34.2898 H         1 UNK         0.1150 
     30 H30        -7.4825  -11.1100   36.4544 H         1 UNK         0.1150 
     31 H31       -11.3695   -4.3498   36.7317 H         1 UNK         0.1150 
     32 H32       -10.8663   -6.3165   35.3649 H         1 UNK         0.1150 
     33 H33        -7.2019  -14.8838   38.5575 H         1 UNK         0.1150 
     34 H34        -9.5409   -6.2092   40.1508 H         1 UNK         0.1150 
     35 H35        -5.9677  -12.4859   42.0849 H         1 UNK         0.1150 
     36 H36        -6.0523  -13.6770   39.9092 H         1 UNK         0.1150 
     37 H37        -6.4745  -16.8988   36.7114 H         1 UNK         0.0600 
     38 H38        -8.1943  -16.9069   37.1257 H         1 UNK         0.0600 
     39 H39        -7.6937  -16.9155   35.4340 H         1 UNK         0.0600 
     40 H40       -10.8135   -2.9354   40.9902 H         1 UNK         0.0300 
     41 H41        -9.4024   -3.9561   40.7408 H         1 UNK         0.0300 
     42 H42       -10.9700   -4.6775   41.1762 H         1 UNK         0.0300 
     43 H43        -9.6407   -9.6372   34.5158 H         1 UNK         0.0300 
     44 H44        -9.4770   -7.8966   34.3125 H         1 UNK         0.0300 
     45 H45       -11.0374   -8.6049   34.7978 H         1 UNK         0.0300 
     46 H46        -8.7490   -9.2698   38.1394 H         1 UNK         0.3000 
@<TRIPOS>BOND
     1    1    2 ar   
     2    1    3 ar   
     3    1   28 1    
     4    2    8 ar   
     5    2   29 1    
     6    3    9 ar   
     7    3   30 1    
     8    4    5 ar   
     9    4   11 ar   
    10    4   31 1    
    11    5   12 ar   
    12    5   32 1    
    13    6    8 ar   
    14    6    9 ar   
    15    6   33 1    
    16    7   10 ar   
    17    7   11 ar   
    18    7   34 1    
    19    8   18 1    
    20    9   22 1    
    21   10   12 ar   
    22   10   23 1    
    23   11   26 1    
    24   12   27 1    
    25   13   14 ar   
    26   13   15 ar   
    27   13   35 1    
    28   14   22 ar   
    29   14   36 1    
    30   15   16 ar   
    31   15   24 2    
    32   16   17 1    
    33   16   21 ar   
    34   17   23 am   BACKBONE|DICT|INTERRES
    35   17   25 2    
    36   18   37 1    
    37   18   38 1    
    38   18   39 1    
    39   19   26 1    
    40   19   40 1    
    41   19   41 1    
    42   19   42 1    
    43   20   27 1    
    44   20   43 1    
    45   20   44 1    
    46   20   45 1    
    47   21   22 ar   
    48   23   46 1    
@<TRIPOS>SUBSTRUCTURE
     1 UNK         1 GROUP             0       ****    0 ROOT    
@<TRIPOS>MOLECULE
ZINC06759187_34
46   48    1
SMALL
USER_CHARGES


@<TRIPOS>ATOM
      1 C1         -7.1255  -14.8935   36.5189 C.ar      1 UNK        -0.1150 
      2 C2         -7.2023  -12.7535   35.3605 C.ar      1 UNK        -0.1150 
      3 C3         -7.1027  -14.2233   37.7578 C.ar      1 UNK        -0.1150 
      4 C4         -7.1815  -12.0842   36.5992 C.ar      1 UNK        -0.1150 
      5 C5        -10.7743   -5.1666   37.0874 C.ar      1 UNK        -0.1150 
      6 C6        -10.3743   -6.2770   36.3220 C.ar      1 UNK        -0.1150 
      7 C7         -9.9064   -6.2250   39.0956 C.ar      1 UNK        -0.1150 
      8 C8         -7.1710  -14.1607   35.3163 C.ar      1 UNK        -0.1150 
      9 C9         -7.1228  -12.8095   37.8132 C.ar      1 UNK         0.2000 
     10 C10        -9.5013   -7.3458   38.3315 C.ar      1 UNK         0.0850 
     11 C11       -10.5466   -5.1246   38.4750 C.ar      1 UNK         0.0850 
     12 C12        -9.7326   -7.3776   36.9386 C.ar      1 UNK         0.0850 
     13 C13        -6.6705  -12.0332   41.4397 C.ar      1 UNK        -0.1150 
     14 C14        -6.5975  -12.6636   40.2549 C.ar      1 UNK         0.0075 
     15 C15        -7.3074  -10.7066   41.5273 C.ar      1 UNK         0.4700 
     16 C16        -7.8067  -10.1574   40.2165 C.ar      1 UNK         0.4529 
     17 C17        -8.4574   -8.8019   40.1183 C.2       1 UNK         0.3238 
     18 C18        -7.1969  -14.8780   33.9824 C.3       1 UNK        -0.0650 
     19 C19       -10.7424   -3.9166   40.5400 C.3       1 UNK         0.1100 
     20 C20        -9.5370   -8.5689   34.8586 C.3       1 UNK         0.1100 
     21 N21        -7.6823  -10.8585   39.1212 N.2       1 UNK        -0.3551 
     22 N22        -7.1048  -12.1142   39.0632 N.pl3     1 UNK        -0.2441 
     23 N23        -8.8600   -8.4929   38.8678 N.am      1 UNK        -0.3850 
     24 O24        -7.4004  -10.1274   42.6109 O.2       1 UNK        -0.4700 
     25 O25        -8.6038   -8.0490   41.0811 O.2       1 UNK        -0.5000 
     26 O26       -10.9727   -3.9952   39.1400 O.3       1 UNK        -0.2850 
     27 O27        -9.3085   -8.5033   36.2581 O.3       1 UNK        -0.2850 
     28 H28        -7.1138  -15.9737   36.4987 H         1 UNK         0.1150 
     29 H29        -7.2426  -12.1795   34.4461 H         1 UNK         0.1150 
     30 H30        -7.0915  -14.8173   38.6579 H         1 UNK         0.1150 
     31 H31        -7.2017  -11.0043   36.6054 H         1 UNK         0.1150 
     32 H32       -11.2631   -4.3322   36.6061 H         1 UNK         0.1150 
     33 H33       -10.5730   -6.2567   35.2622 H         1 UNK         0.1150 
     34 H34        -9.7287   -6.2107   40.1571 H         1 UNK         0.1150 
     35 H35        -6.2600  -12.4653   42.3390 H         1 UNK         0.1150 
     36 H36        -6.1055  -13.6187   40.1468 H         1 UNK         0.1150 
     37 H37        -8.2151  -14.9149   33.5944 H         1 UNK         0.0600 
     38 H38        -6.5707  -14.3605   33.2550 H         1 UNK         0.0600 
     39 H39        -6.8284  -15.9000   34.0758 H         1 UNK         0.0600 
     40 H40       -11.1261   -2.9683   40.9154 H         1 UNK         0.0300 
     41 H41        -9.6771   -3.9564   40.7722 H         1 UNK         0.0300 
     42 H42       -11.2586   -4.7151   41.0749 H         1 UNK         0.0300 
     43 H43        -9.1504   -9.5136   34.4762 H         1 UNK         0.0300 
     44 H44        -9.0216   -7.7645   34.3321 H         1 UNK         0.0300 
     45 H45       -10.6022   -8.5305   34.6264 H         1 UNK         0.0300 
     46 H46        -8.6647   -9.2123   38.1823 H         1 UNK         0.3000 
@<TRIPOS>BOND
     1    1    3 ar   
     2    1    8 ar   
     3    1   28 1    
     4    2    4 ar   
     5    2    8 ar   
     6    2   29 1    
     7    3    9 ar   
     8    3   30 1    
     9    4    9 ar   
    10    4   31 1    
    11    5    6 ar   
    12    5   11 ar   
    13    5   32 1    
    14    6   12 ar   
    15    6   33 1    
    16    7   10 ar   
    17    7   11 ar   
    18    7   34 1    
    19    8   18 1    
    20    9   22 1    
    21   10   12 ar   
    22   10   23 1    
    23   11   26 1    
    24   12   27 1    
    25   13   14 ar   
    26   13   15 ar   
    27   13   35 1    
    28   14   22 ar   
    29   14   36 1    
    30   15   16 ar   
    31   15   24 2    
    32   16   17 1    
    33   16   21 ar   
    34   17   23 am   BACKBONE|DICT|INTERRES
    35   17   25 2    
    36   18   37 1    
    37   18   38 1    
    38   18   39 1    
    39   19   26 1    
    40   19   40 1    
    41   19   41 1    
    42   19   42 1    
    43   20   27 1    
    44   20   43 1    
    45   20   44 1    
    46   20   45 1    
    47   21   22 ar   
    48   23   46 1    
@<TRIPOS>SUBSTRUCTURE
     1 UNK         1 GROUP             0       ****    0 ROOT    
@<TRIPOS>MOLECULE
ZINC06784897_44
40   41    1
SMALL
USER_CHARGES


@<TRIPOS>ATOM
      1 C1         -8.0833  -13.7419   36.0280 C.ar      1 UNK        -0.1150 
      2 C2         -8.0837  -12.4221   36.5194 C.ar      1 UNK        -0.1150 
      3 C3         -8.3393  -14.8164   36.9001 C.ar      1 UNK        -0.1150 
      4 C4        -10.7298   -8.8886   38.2062 C.ar      1 UNK        -0.1150 
      5 C5         -9.9007   -6.8630   39.2738 C.ar      1 UNK        -0.1150 
      6 C6         -8.5934  -13.2474   38.7527 C.ar      1 UNK        -0.1150 
      7 C7         -9.8124   -8.2590   39.0789 C.ar      1 UNK        -0.1150 
      8 C8         -8.3395  -12.1590   37.8805 C.ar      1 UNK         0.0850 
      9 C9        -11.7185   -8.1375   37.5268 C.ar      1 UNK         0.0850 
     10 C10       -10.8862   -6.0926   38.6111 C.ar      1 UNK         0.0850 
     11 C11       -11.7835   -6.7419   37.7308 C.ar      1 UNK         0.0850 
     12 C12        -8.5929  -14.5679   38.2618 C.ar      1 UNK         0.1800 
     13 C13        -8.7511   -9.0217   39.8026 C.2       1 UNK         0.5370 
     14 C14       -12.5824  -10.0855   36.4038 C.3       1 UNK         0.1100 
     15 C15       -10.1649   -4.0642   39.6884 C.3       1 UNK         0.1100 
     16 C16       -12.2602   -5.2506   35.9961 C.3       1 UNK         0.1100 
     17 C17        -8.6873  -10.5406   39.6150 C.3       1 UNK         0.1880 
     18 O18        -7.9413   -8.4871   40.5605 O.2       1 UNK        -0.4700 
     19 O19       -12.6338   -8.6888   36.6532 O.3       1 UNK        -0.2850 
     20 O20       -11.0304   -4.7305   38.7814 O.3       1 UNK        -0.2850 
     21 O21       -12.7543   -6.0286   37.0742 O.3       1 UNK        -0.2850 
     22 O22        -8.3234  -10.8399   38.2721 O.3       1 UNK        -0.2850 
     23 Cl23       -8.9050  -15.8830   39.3329 Cl        1 UNK        -0.1800 
     24 H24        -7.8852  -13.9291   34.9825 H         1 UNK         0.1150 
     25 H25        -7.8855  -11.6005   35.8456 H         1 UNK         0.1150 
     26 H26        -8.3389  -15.8308   36.5278 H         1 UNK         0.1150 
     27 H27       -10.6692   -9.9531   38.0506 H         1 UNK         0.1150 
     28 H28        -9.1967   -6.3958   39.9463 H         1 UNK         0.1150 
     29 H29        -8.7865  -13.1019   39.8042 H         1 UNK         0.1150 
     30 H30       -13.3622  -10.3506   35.6900 H         1 UNK         0.0300 
     31 H31       -12.7603  -10.6607   37.3133 H         1 UNK         0.0300 
     32 H32       -11.6257  -10.3788   35.9694 H         1 UNK         0.0300 
     33 H33       -10.4217   -3.0054   39.7169 H         1 UNK         0.0300 
     34 H34        -9.1229   -4.1419   39.3756 H         1 UNK         0.0300 
     35 H35       -10.2705   -4.4555   40.7011 H         1 UNK         0.0300 
     36 H36       -13.0955   -4.7881   35.4711 H         1 UNK         0.0300 
     37 H37       -11.7184   -5.8714   35.2809 H         1 UNK         0.0300 
     38 H38       -11.5992   -4.4527   36.3346 H         1 UNK         0.0300 
     39 H39        -9.6585  -10.9701   39.8619 H         1 UNK         0.0300 
     40 H40        -7.9498  -10.9566   40.3022 H         1 UNK         0.0300 
@<TRIPOS>BOND
     1    1    2 ar   
     2    1    3 ar   
     3    1   24 1    
     4    2    8 ar   
     5    2   25 1    
     6    3   12 ar   
     7    3   26 1    
     8    4    7 ar   
     9    4    9 ar   
    10    4   27 1    
    11    5    7 ar   
    12    5   10 ar   
    13    5   28 1    
    14    6    8 ar   
    15    6   12 ar   
    16    6   29 1    
    17    7   13 1    
    18    8   22 1    
    19    9   11 ar   
    20    9   19 1    
    21   10   11 ar   
    22   10   20 1    
    23   11   21 1    
    24   12   23 1    
    25   13   17 1    
    26   13   18 2    
    27   14   19 1    
    28   14   30 1    
    29   14   31 1    
    30   14   32 1    
    31   15   20 1    
    32   15   33 1    
    33   15   34 1    
    34   15   35 1    
    35   16   21 1    
    36   16   36 1    
    37   16   37 1    
    38   16   38 1    
    39   17   22 1    
    40   17   39 1    
    41   17   40 1    
@<TRIPOS>SUBSTRUCTURE
     1 UNK         1 GROUP             0       ****    0 ROOT    
@<TRIPOS>MOLECULE
ZINC06810745_13
49   52    1
SMALL
USER_CHARGES


@<TRIPOS>ATOM
      1 C1         -5.2428  -13.8774   34.2511 C.ar      1 UNK        -0.1150 
      2 C2         -5.5290  -14.3671   35.5381 C.ar      1 UNK        -0.1150 
      3 C3         -5.1236  -12.4918   34.0400 C.ar      1 UNK        -0.1150 
      4 C4         -5.6957  -13.4736   36.6136 C.ar      1 UNK        -0.1150 
      5 C5         -7.9952   -5.1435   39.4445 C.ar      1 UNK        -0.1150 
      6 C6         -8.9920   -7.1977   38.5995 C.ar      1 UNK        -0.1150 
      7 C7         -8.1272   -6.5460   39.5037 C.ar      1 UNK         0.0000 
      8 C8         -5.2912  -11.5934   35.1144 C.ar      1 UNK        -0.1150 
      9 C9         -5.5786  -12.0750   36.4116 C.ar      1 UNK         0.0850 
     10 C10        -8.7074   -4.3846   38.4849 C.ar      1 UNK         0.0850 
     11 C11        -9.7047   -6.4631   37.6226 C.ar      1 UNK         0.0850 
     12 C12        -9.5489   -5.0602   37.5679 C.ar      1 UNK         0.0850 
     13 C13        -7.3640   -7.2917   40.5082 C.ar      1 UNK         0.4100 
     14 C14        -6.1737   -8.8254   41.5749 C.ar      1 UNK         0.4175 
     15 C15        -6.1975  -10.4211   39.6779 C.2       1 UNK         0.2035 
     16 C16        -5.1644  -10.1009   34.8754 C.3       1 UNK        -0.0650 
     17 C17        -7.8586   -2.3085   39.3584 C.3       1 UNK         0.1100 
     18 C18       -10.7075   -8.4501   36.7066 C.3       1 UNK         0.1100 
     19 C19        -9.4663   -3.8426   35.5694 C.3       1 UNK         0.1100 
     20 C20        -6.0385  -11.5837   38.7232 C.3       1 UNK         0.1818 
     21 N21        -7.0517   -6.8295   41.7327 N.2       1 UNK        -0.3633 
     22 N22        -6.2972   -7.8219   42.4063 N.2       1 UNK        -0.3633 
     23 N23        -6.8721   -9.3103   39.3557 N.2       1 UNK        -0.2500 
     24 N24        -6.8192   -8.5073   40.4363 N.pl3     1 UNK        -0.0934 
     25 O25        -8.6347   -3.0090   38.3976 O.3       1 UNK        -0.2850 
     26 O26       -10.5503   -7.0394   36.6964 O.3       1 UNK        -0.2850 
     27 O27       -10.2603   -4.3639   36.6230 O.3       1 UNK        -0.2850 
     28 O28        -5.7291  -11.1372   37.4107 O.3       1 UNK        -0.2850 
     29 S29        -5.5011  -10.4274   41.3362 S.3       1 UNK        -0.0028 
     30 H30        -5.1149  -14.5631   33.4259 H         1 UNK         0.1150 
     31 H31        -5.6207  -15.4311   35.7008 H         1 UNK         0.1150 
     32 H32        -4.9037  -12.1229   33.0487 H         1 UNK         0.1150 
     33 H33        -5.9129  -13.8914   37.5840 H         1 UNK         0.1150 
     34 H34        -7.3374   -4.6696   40.1571 H         1 UNK         0.1150 
     35 H35        -9.1023   -8.2672   38.6718 H         1 UNK         0.1150 
     36 H36        -6.1083   -9.6036   35.0996 H         1 UNK         0.0600 
     37 H37        -4.3951   -9.6795   35.5229 H         1 UNK         0.0600 
     38 H38        -4.8982   -9.8790   33.8421 H         1 UNK         0.0600 
     39 H39        -7.9388   -1.2377   39.1723 H         1 UNK         0.0300 
     40 H40        -6.8033   -2.5759   39.2908 H         1 UNK         0.0300 
     41 H41        -8.2158   -2.4931   40.3726 H         1 UNK         0.0300 
     42 H42       -11.3927   -8.7397   35.9101 H         1 UNK         0.0300 
     43 H43       -11.1334   -8.7962   37.6493 H         1 UNK         0.0300 
     44 H44        -9.7597   -8.9597   36.5268 H         1 UNK         0.0300 
     45 H45       -10.1170   -3.4634   34.7817 H         1 UNK         0.0300 
     46 H46        -8.8318   -4.6156   35.1332 H         1 UNK         0.0300 
     47 H47        -8.8347   -3.0187   35.9007 H         1 UNK         0.0300 
     48 H48        -6.9721  -12.1481   38.7219 H         1 UNK         0.0300 
     49 H49        -5.2459  -12.2339   39.0960 H         1 UNK         0.0300 
@<TRIPOS>BOND
     1    1    2 ar   
     2    1    3 ar   
     3    1   30 1    
     4    2    4 ar   
     5    2   31 1    
     6    3    8 ar   
     7    3   32 1    
     8    4    9 ar   
     9    4   33 1    
    10    5    7 ar   
    11    5   10 ar   
    12    5   34 1    
    13    6    7 ar   
    14    6   11 ar   
    15    6   35 1    
    16    7   13 1    
    17    8    9 ar   
    18    8   16 1    
    19    9   28 1    
    20   10   12 ar   
    21   10   25 1    
    22   11   12 ar   
    23   11   26 1    
    24   12   27 1    
    25   13   21 ar   
    26   13   24 ar   
    27   14   22 ar   
    28   14   24 ar   
    29   14   29 1    
    30   15   20 1    
    31   15   23 2    
    32   15   29 1    
    33   16   36 1    
    34   16   37 1    
    35   16   38 1    
    36   17   25 1    
    37   17   39 1    
    38   17   40 1    
    39   17   41 1    
    40   18   26 1    
    41   18   42 1    
    42   18   43 1    
    43   18   44 1    
    44   19   27 1    
    45   19   45 1    
    46   19   46 1    
    47   19   47 1    
    48   20   28 1    
    49   20   48 1    
    50   20   49 1    
    51   21   22 ar   
    52   23   24 1    
@<TRIPOS>SUBSTRUCTURE
     1 UNK         1 GROUP             0       ****    0 ROOT    
@<TRIPOS>MOLECULE
ZINC06826605_287
51   53    1
SMALL
USER_CHARGES


@<TRIPOS>ATOM
      1 C1         -4.9116  -11.7496   34.9468 C.ar      1 UNK        -0.1150 
      2 C2         -5.7094  -12.6510   35.6761 C.ar      1 UNK        -0.1150 
      3 C3         -4.4612  -10.5628   35.5544 C.ar      1 UNK        -0.1150 
      4 C4         -6.0563  -12.3657   37.0116 C.ar      1 UNK        -0.1150 
      5 C5         -4.8104  -10.2783   36.8891 C.ar      1 UNK        -0.1150 
      6 C6         -7.3924   -6.2271   37.3958 C.ar      1 UNK        -0.1150 
      7 C7         -7.8329   -5.2617   36.4767 C.ar      1 UNK        -0.1150 
      8 C8         -7.8584   -4.6816   39.2112 C.ar      1 UNK        -0.1150 
      9 C9         -6.4186  -11.7522   39.9927 C.2       1 UNK        -0.3376 
     10 C10        -5.6130  -11.1756   37.6310 C.ar      1 UNK         0.0000 
     11 C11        -7.3984   -5.9457   38.7731 C.ar      1 UNK         0.1066 
     12 C12        -8.2957   -4.0008   36.8996 C.ar      1 UNK         0.0850 
     13 C13        -8.2959   -3.6897   38.2929 C.ar      1 UNK         0.0850 
     14 C14        -5.9771  -10.8826   39.0237 C.2       1 UNK         0.2843 
     15 C15        -6.2883   -9.4321   40.7783 C.2       1 UNK         0.3859 
     16 C16        -6.6135   -6.9656   40.9385 C.2       1 UNK         0.8137 
     17 C17        -6.7587   -8.3522   45.3113 C.3       1 UNK        -0.1800 
     18 C18        -9.4909   -2.0270   36.1455 C.3       1 UNK         0.1100 
     19 C19        -8.5737   -2.0892   40.0844 C.3       1 UNK         0.1100 
     20 C20        -7.1483   -8.2514   43.8330 C.3       1 UNK        -0.1200 
     21 C21        -5.9172   -8.2278   42.9044 C.3       1 UNK        -0.0703 
     22 N22        -5.9043   -9.5675   39.5017 N.2       1 UNK        -0.4803 
     23 N23        -6.9610   -6.9853   39.6386 N.am      1 UNK        -0.4727 
     24 N24        -6.2856   -8.1778   41.4773 N.am      1 UNK        -0.2572 
     25 O25        -6.6016   -5.9286   41.6030 O.2       1 UNK        -0.6163 
     26 O26        -8.6991   -3.1718   35.8708 O.3       1 UNK        -0.2850 
     27 O27        -8.7079   -2.4398   38.7136 O.3       1 UNK        -0.2850 
     28 S28        -6.7479  -10.9644   41.5122 S.3       1 UNK         0.0010 
     29 H29        -4.6444  -11.9680   33.9226 H         1 UNK         0.1150 
     30 H30        -6.0570  -13.5617   35.2100 H         1 UNK         0.1150 
     31 H31        -3.8461   -9.8700   34.9983 H         1 UNK         0.1150 
     32 H32        -6.6748  -13.0652   37.5534 H         1 UNK         0.1150 
     33 H33        -4.4520   -9.3662   37.3442 H         1 UNK         0.1150 
     34 H34        -7.0508   -7.1849   37.0300 H         1 UNK         0.1150 
     35 H35        -7.8244   -5.4917   35.4217 H         1 UNK         0.1150 
     36 H36        -7.8790   -4.4753   40.2672 H         1 UNK         0.1150 
     37 H37        -6.5607  -12.8181   39.9072 H         1 UNK         0.2317 
     38 H38        -6.1936   -9.2631   45.5114 H         1 UNK         0.0600 
     39 H39        -6.1457   -7.5027   45.6147 H         1 UNK         0.0600 
     40 H40        -7.6444   -8.3644   45.9469 H         1 UNK         0.0600 
     41 H41        -9.8974   -1.6440   35.2099 H         1 UNK         0.0300 
     42 H42        -8.8952   -1.2283   36.5885 H         1 UNK         0.0300 
     43 H43       -10.3355   -2.2636   36.7940 H         1 UNK         0.0300 
     44 H44        -8.8708   -1.0494   40.2182 H         1 UNK         0.0300 
     45 H45        -7.5406   -2.1809   40.4232 H         1 UNK         0.0300 
     46 H46        -9.2199   -2.6985   40.7176 H         1 UNK         0.0300 
     47 H47        -7.7410   -7.3470   43.6862 H         1 UNK         0.0600 
     48 H48        -7.7994   -9.0877   43.5784 H         1 UNK         0.0600 
     49 H49        -5.2807   -7.3771   43.1578 H         1 UNK         0.0600 
     50 H50        -5.2915   -9.1006   43.0945 H         1 UNK         0.0600 
     51 H51        -6.8052   -7.8871   39.2051 H         1 UNK         0.2912 
@<TRIPOS>BOND
     1    1    2 ar   
     2    1    3 ar   
     3    1   29 1    
     4    2    4 ar   
     5    2   30 1    
     6    3    5 ar   
     7    3   31 1    
     8    4   10 ar   
     9    4   32 1    
    10    5   10 ar   
    11    5   33 1    
    12    6    7 ar   
    13    6   11 ar   
    14    6   34 1    
    15    7   12 ar   
    16    7   35 1    
    17    8   11 ar   
    18    8   13 ar   
    19    8   36 1    
    20    9   14 2    
    21    9   28 1    
    22    9   37 1    
    23   10   14 1    
    24   11   23 1    
    25   12   13 ar   
    26   12   26 1    
    27   13   27 1    
    28   14   22 1    
    29   15   22 2    
    30   15   24 am   BACKBONE|DICT|INTERRES
    31   15   28 1    
    32   16   23 am   BACKBONE|DICT|INTERRES
    33   16   24 am   BACKBONE|DICT|INTERRES
    34   16   25 2    
    35   17   20 1    
    36   17   38 1    
    37   17   39 1    
    38   17   40 1    
    39   18   26 1    
    40   18   41 1    
    41   18   42 1    
    42   18   43 1    
    43   19   27 1    
    44   19   44 1    
    45   19   45 1    
    46   19   46 1    
    47   20   21 1    
    48   20   47 1    
    49   20   48 1    
    50   21   24 1    
    51   21   49 1    
    52   21   50 1    
    53   23   51 1    
@<TRIPOS>SUBSTRUCTURE
     1 UNK         1 GROUP             0       ****    0 ROOT    
@<TRIPOS>MOLECULE
ZINC06906476_83
46   49    1
SMALL
USER_CHARGES


@<TRIPOS>ATOM
      1 C1         -6.0378  -13.3908   35.7845 C.ar      1 UNK        -0.1150 
      2 C2         -3.6730  -13.2003   36.3329 C.ar      1 UNK        -0.1150 
      3 C3         -5.7260  -14.3344   34.7856 C.ar      1 UNK        -0.1150 
      4 C4         -3.3619  -14.1437   35.3348 C.ar      1 UNK        -0.1150 
      5 C5         -7.9113   -5.0679   39.2908 C.ar      1 UNK        -0.1150 
      6 C6         -9.2909   -6.9190   38.5346 C.ar      1 UNK        -0.1150 
      7 C7         -8.2298   -6.4376   39.3222 C.ar      1 UNK         0.0000 
      8 C8         -5.0076  -12.8128   36.5691 C.ar      1 UNK         0.0850 
      9 C9         -8.6285   -4.1626   38.4696 C.ar      1 UNK         0.0850 
     10 C10       -10.0230   -6.0423   37.7011 C.ar      1 UNK         0.0850 
     11 C11        -9.6864   -4.6679   37.6547 C.ar      1 UNK         0.0850 
     12 C12        -4.3894  -14.7112   34.5599 C.ar      1 UNK         0.1800 
     13 C13        -7.4555   -7.3341   40.1793 C.ar      1 UNK         0.4100 
     14 C14        -6.3101   -9.0543   40.9702 C.ar      1 UNK         0.4175 
     15 C15        -6.5794  -10.4055   38.9092 C.2       1 UNK         0.2035 
     16 C16        -7.2907   -2.3142   39.2721 C.3       1 UNK         0.1100 
     17 C17       -11.4389   -7.8279   36.9165 C.3       1 UNK         0.1100 
     18 C18        -9.9557   -2.7000   36.2643 C.3       1 UNK         0.1100 
     19 C19        -6.5444  -11.4455   37.8124 C.3       1 UNK         0.1818 
     20 N20        -7.0215   -7.0342   41.4160 N.2       1 UNK        -0.3633 
     21 N21        -6.2991   -8.1471   41.9145 N.2       1 UNK        -0.3633 
     22 N22        -7.2022   -9.2281   38.7714 N.2       1 UNK        -0.2500 
     23 N23        -7.0124   -8.5658   39.9299 N.pl3     1 UNK        -0.0934 
     24 O24        -8.3433   -2.8108   38.4570 O.3       1 UNK        -0.2850 
     25 O25       -11.0689   -6.4579   36.9007 O.3       1 UNK        -0.2850 
     26 O26       -10.4678   -3.9074   36.8044 O.3       1 UNK        -0.2850 
     27 O27        -5.2159  -11.8828   37.5626 O.3       1 UNK        -0.2850 
     28 S28        -5.7763  -10.6564   40.4999 S.3       1 UNK        -0.0028 
     29 Cl29       -4.0123  -15.8657   33.3360 Cl        1 UNK        -0.1800 
     30 H30        -7.0751  -13.1293   35.9246 H         1 UNK         0.1150 
     31 H31        -2.8790  -12.7671   36.9233 H         1 UNK         0.1150 
     32 H32        -6.5127  -14.7714   34.1885 H         1 UNK         0.1150 
     33 H33        -2.3353  -14.4315   35.1621 H         1 UNK         0.1150 
     34 H34        -7.1023   -4.7369   39.9238 H         1 UNK         0.1150 
     35 H35        -9.5312   -7.9685   38.5895 H         1 UNK         0.1150 
     36 H36        -7.2062   -1.2370   39.1299 H         1 UNK         0.0300 
     37 H37        -6.3315   -2.7563   38.9996 H         1 UNK         0.0300 
     38 H38        -7.4860   -2.4908   40.3307 H         1 UNK         0.0300 
     39 H39       -12.2741   -7.9808   36.2334 H         1 UNK         0.0300 
     40 H40       -11.7640   -8.1420   37.9092 H         1 UNK         0.0300 
     41 H41       -10.6197   -8.4661   36.5828 H         1 UNK         0.0300 
     42 H42       -10.5310   -2.4380   35.3767 H         1 UNK         0.0300 
     43 H43        -8.9127   -2.7964   35.9599 H         1 UNK         0.0300 
     44 H44       -10.0596   -1.8761   36.9703 H         1 UNK         0.0300 
     45 H45        -6.9765  -11.0156   36.9071 H         1 UNK         0.0300 
     46 H46        -7.1678  -12.2855   38.1214 H         1 UNK         0.0300 
@<TRIPOS>BOND
     1    1    3 ar   
     2    1    8 ar   
     3    1   30 1    
     4    2    4 ar   
     5    2    8 ar   
     6    2   31 1    
     7    3   12 ar   
     8    3   32 1    
     9    4   12 ar   
    10    4   33 1    
    11    5    7 ar   
    12    5    9 ar   
    13    5   34 1    
    14    6    7 ar   
    15    6   10 ar   
    16    6   35 1    
    17    7   13 1    
    18    8   27 1    
    19    9   11 ar   
    20    9   24 1    
    21   10   11 ar   
    22   10   25 1    
    23   11   26 1    
    24   12   29 1    
    25   13   20 ar   
    26   13   23 ar   
    27   14   21 ar   
    28   14   23 ar   
    29   14   28 1    
    30   15   19 1    
    31   15   22 2    
    32   15   28 1    
    33   16   24 1    
    34   16   36 1    
    35   16   37 1    
    36   16   38 1    
    37   17   25 1    
    38   17   39 1    
    39   17   40 1    
    40   17   41 1    
    41   18   26 1    
    42   18   42 1    
    43   18   43 1    
    44   18   44 1    
    45   19   27 1    
    46   19   45 1    
    47   19   46 1    
    48   20   21 ar   
    49   22   23 1    
@<TRIPOS>SUBSTRUCTURE
     1 UNK         1 GROUP             0       ****    0 ROOT    
@<TRIPOS>MOLECULE
ZINC06924267_240
51   54    1
SMALL
USER_CHARGES


@<TRIPOS>ATOM
      1 C1        -23.9379  -18.0380   36.2308 C.ar      1 UNK         0.2270 
      2 C2        -19.5959  -26.9676   36.0749 C.ar      1 UNK        -0.1150 
      3 C3        -24.9994  -17.4268   36.9167 C.ar      1 UNK        -0.4470 
      4 C4        -19.0738  -28.2741   36.0563 C.ar      1 UNK        -0.1150 
      5 C5        -20.5766  -26.6127   37.0207 C.ar      1 UNK        -0.1150 
      6 C6        -23.9013  -19.4410   36.1541 C.ar      1 UNK        -0.4470 
      7 C7        -20.5187  -28.8736   37.9275 C.ar      1 UNK        -0.1150 
      8 C8        -25.9822  -18.2498   37.4903 C.ar      1 UNK         0.4730 
      9 C9        -19.5364  -29.2312   36.9807 C.ar      1 UNK        -0.1150 
     10 C10       -21.0394  -27.5572   37.9657 C.ar      1 UNK         0.0850 
     11 C11       -24.9308  -20.1871   36.7603 C.ar      1 UNK         0.5109 
     12 C12       -24.0279  -25.8935   39.1309 C.2       1 UNK         0.4050 
     13 C13       -21.9502  -27.5023   40.2141 C.2       1 UNK         0.5000 
     14 C14       -25.1565  -25.1410   38.5150 C.2       1 UNK         0.3238 
     15 C15       -23.9228  -25.9528   40.6367 C.3       1 UNK        -0.0721 
     16 C16       -23.1623  -27.2084   41.1004 C.3       1 UNK        -0.1200 
     17 C17       -26.1708  -22.2837   36.9675 C.3       1 UNK         0.0900 
     18 C18       -23.7216  -22.1926   37.3151 C.3       1 UNK         0.0900 
     19 C19       -26.0390  -23.7833   36.6557 C.3       1 UNK        -0.0500 
     20 C20       -23.6529  -23.7106   37.0464 C.3       1 UNK        -0.0500 
     21 C21       -18.9733  -30.6374   36.9612 C.3       1 UNK        -0.0650 
     22 N22       -25.9504  -19.5945   37.4157 N.ar      1 UNK        -0.6780 
     23 N23       -23.1458  -26.4764   38.3814 N.2       1 UNK        -0.2833 
     24 N24       -22.0621  -27.1813   38.8904 N.am      1 UNK        -0.0784 
     25 N25       -24.9064  -21.5928   36.7027 N.pl3     1 UNK        -0.4459 
     26 N26       -24.9273  -24.3430   37.4373 N.am      1 UNK        -0.1400 
     27 O27       -20.9440  -27.9773   40.7364 O.2       1 UNK        -0.5000 
     28 O28       -26.2862  -25.2985   38.9800 O.2       1 UNK        -0.5000 
     29 H29       -23.1649  -17.4419   35.7687 H         1 UNK         0.0650 
     30 H30       -19.2435  -26.2365   35.3622 H         1 UNK         0.1150 
     31 H31       -25.0651  -16.3524   36.9994 H         1 UNK         0.1550 
     32 H32       -18.3189  -28.5385   35.3296 H         1 UNK         0.1150 
     33 H33       -20.9677  -25.6070   37.0206 H         1 UNK         0.1150 
     34 H34       -23.1025  -19.9292   35.6168 H         1 UNK         0.1550 
     35 H35       -20.8706  -29.6131   38.6324 H         1 UNK         0.1150 
     36 H36       -26.8154  -17.8179   38.0245 H         1 UNK         0.0120 
     37 H37       -23.4204  -25.0544   40.9952 H         1 UNK         0.0600 
     38 H38       -24.9154  -25.9523   41.0887 H         1 UNK         0.0600 
     39 H39       -23.8173  -28.0787   41.0521 H         1 UNK         0.0600 
     40 H40       -22.8488  -27.1053   42.1394 H         1 UNK         0.0600 
     41 H41       -26.9626  -21.8452   36.3584 H         1 UNK         0.0600 
     42 H42       -26.4562  -22.1404   38.0112 H         1 UNK         0.0600 
     43 H43       -23.7557  -22.0023   38.3889 H         1 UNK         0.0600 
     44 H44       -22.8123  -21.7208   36.9432 H         1 UNK         0.0600 
     45 H45       -26.9870  -24.2877   36.8516 H         1 UNK         0.0600 
     46 H46       -25.8440  -23.9290   35.5924 H         1 UNK         0.0600 
     47 H47       -23.4759  -23.8962   35.9859 H         1 UNK         0.0600 
     48 H48       -22.7805  -24.0995   37.5662 H         1 UNK         0.0600 
     49 H49       -18.0243  -30.6689   37.4969 H         1 UNK         0.0600 
     50 H50       -19.6576  -31.3417   37.4353 H         1 UNK         0.0600 
     51 H51       -18.8027  -30.9712   35.9374 H         1 UNK         0.0600 
@<TRIPOS>BOND
     1    1    3 ar   
     2    1    6 ar   
     3    1   29 1    
     4    2    4 ar   
     5    2    5 ar   
     6    2   30 1    
     7    3    8 ar   
     8    3   31 1    
     9    4    9 ar   
    10    4   32 1    
    11    5   10 ar   
    12    5   33 1    
    13    6   11 ar   
    14    6   34 1    
    15    7    9 ar   
    16    7   10 ar   
    17    7   35 1    
    18    8   22 ar   
    19    8   36 1    
    20    9   21 1    
    21   10   24 1    
    22   11   22 ar   
    23   11   25 1    
    24   12   14 1    
    25   12   15 1    
    26   12   23 2    
    27   13   16 1    
    28   13   24 am   BACKBONE|DICT|INTERRES
    29   13   27 2    
    30   14   26 am   BACKBONE|DICT|INTERRES
    31   14   28 2    
    32   15   16 1    
    33   15   37 1    
    34   15   38 1    
    35   16   39 1    
    36   16   40 1    
    37   17   19 1    
    38   17   25 1    
    39   17   41 1    
    40   17   42 1    
    41   18   20 1    
    42   18   25 1    
    43   18   43 1    
    44   18   44 1    
    45   19   26 1    
    46   19   45 1    
    47   19   46 1    
    48   20   26 1    
    49   20   47 1    
    50   20   48 1    
    51   21   49 1    
    52   21   50 1    
    53   21   51 1    
    54   23   24 1    
@<TRIPOS>SUBSTRUCTURE
     1 UNK         1 GROUP             0       ****    0 ROOT    
@<TRIPOS>MOLECULE
ZINC06924267_240
51   54    1
SMALL
USER_CHARGES


@<TRIPOS>ATOM
      1 C1        -23.9379  -18.0380   36.2308 C.ar      1 UNK         0.2270 
      2 C2        -19.5959  -26.9676   36.0749 C.ar      1 UNK        -0.1150 
      3 C3        -24.9994  -17.4268   36.9167 C.ar      1 UNK        -0.4470 
      4 C4        -19.0738  -28.2741   36.0563 C.ar      1 UNK        -0.1150 
      5 C5        -20.5766  -26.6127   37.0207 C.ar      1 UNK        -0.1150 
      6 C6        -23.9013  -19.4410   36.1541 C.ar      1 UNK        -0.4470 
      7 C7        -20.5187  -28.8736   37.9275 C.ar      1 UNK        -0.1150 
      8 C8        -25.9822  -18.2498   37.4903 C.ar      1 UNK         0.4730 
      9 C9        -19.5364  -29.2312   36.9807 C.ar      1 UNK        -0.1150 
     10 C10       -21.0394  -27.5572   37.9657 C.ar      1 UNK         0.0850 
     11 C11       -24.9308  -20.1871   36.7603 C.ar      1 UNK         0.5109 
     12 C12       -24.0279  -25.8935   39.1309 C.2       1 UNK         0.4050 
     13 C13       -21.9502  -27.5023   40.2141 C.2       1 UNK         0.5000 
     14 C14       -25.1565  -25.1410   38.5150 C.2       1 UNK         0.3238 
     15 C15       -23.9228  -25.9528   40.6367 C.3       1 UNK        -0.0721 
     16 C16       -23.1623  -27.2084   41.1004 C.3       1 UNK        -0.1200 
     17 C17       -26.1708  -22.2837   36.9675 C.3       1 UNK         0.0900 
     18 C18       -23.7216  -22.1926   37.3151 C.3       1 UNK         0.0900 
     19 C19       -26.0390  -23.7833   36.6557 C.3       1 UNK        -0.0500 
     20 C20       -23.6529  -23.7106   37.0464 C.3       1 UNK        -0.0500 
     21 C21       -18.9733  -30.6374   36.9612 C.3       1 UNK        -0.0650 
     22 N22       -25.9504  -19.5945   37.4157 N.ar      1 UNK        -0.6780 
     23 N23       -23.1458  -26.4764   38.3814 N.2       1 UNK        -0.2833 
     24 N24       -22.0621  -27.1813   38.8904 N.am      1 UNK        -0.0784 
     25 N25       -24.9064  -21.5928   36.7027 N.pl3     1 UNK        -0.4459 
     26 N26       -24.9273  -24.3430   37.4373 N.am      1 UNK        -0.1400 
     27 O27       -20.9440  -27.9773   40.7364 O.2       1 UNK        -0.5000 
     28 O28       -26.2862  -25.2985   38.9800 O.2       1 UNK        -0.5000 
     29 H29       -23.1649  -17.4419   35.7687 H         1 UNK         0.0650 
     30 H30       -19.2435  -26.2365   35.3622 H         1 UNK         0.1150 
     31 H31       -25.0651  -16.3524   36.9994 H         1 UNK         0.1550 
     32 H32       -18.3189  -28.5385   35.3296 H         1 UNK         0.1150 
     33 H33       -20.9677  -25.6070   37.0206 H         1 UNK         0.1150 
     34 H34       -23.1025  -19.9292   35.6168 H         1 UNK         0.1550 
     35 H35       -20.8706  -29.6131   38.6324 H         1 UNK         0.1150 
     36 H36       -26.8154  -17.8179   38.0245 H         1 UNK         0.0120 
     37 H37       -23.4204  -25.0544   40.9952 H         1 UNK         0.0600 
     38 H38       -24.9154  -25.9523   41.0887 H         1 UNK         0.0600 
     39 H39       -23.8173  -28.0787   41.0521 H         1 UNK         0.0600 
     40 H40       -22.8488  -27.1053   42.1394 H         1 UNK         0.0600 
     41 H41       -26.9626  -21.8452   36.3584 H         1 UNK         0.0600 
     42 H42       -26.4562  -22.1404   38.0112 H         1 UNK         0.0600 
     43 H43       -23.7557  -22.0023   38.3889 H         1 UNK         0.0600 
     44 H44       -22.8123  -21.7208   36.9432 H         1 UNK         0.0600 
     45 H45       -26.9870  -24.2877   36.8516 H         1 UNK         0.0600 
     46 H46       -25.8440  -23.9290   35.5924 H         1 UNK         0.0600 
     47 H47       -23.4759  -23.8962   35.9859 H         1 UNK         0.0600 
     48 H48       -22.7805  -24.0995   37.5662 H         1 UNK         0.0600 
     49 H49       -18.0243  -30.6689   37.4969 H         1 UNK         0.0600 
     50 H50       -19.6576  -31.3417   37.4353 H         1 UNK         0.0600 
     51 H51       -18.8027  -30.9712   35.9374 H         1 UNK         0.0600 
@<TRIPOS>BOND
     1    1    3 ar   
     2    1    6 ar   
     3    1   29 1    
     4    2    4 ar   
     5    2    5 ar   
     6    2   30 1    
     7    3    8 ar   
     8    3   31 1    
     9    4    9 ar   
    10    4   32 1    
    11    5   10 ar   
    12    5   33 1    
    13    6   11 ar   
    14    6   34 1    
    15    7    9 ar   
    16    7   10 ar   
    17    7   35 1    
    18    8   22 ar   
    19    8   36 1    
    20    9   21 1    
    21   10   24 1    
    22   11   22 ar   
    23   11   25 1    
    24   12   14 1    
    25   12   15 1    
    26   12   23 2    
    27   13   16 1    
    28   13   24 am   BACKBONE|DICT|INTERRES
    29   13   27 2    
    30   14   26 am   BACKBONE|DICT|INTERRES
    31   14   28 2    
    32   15   16 1    
    33   15   37 1    
    34   15   38 1    
    35   16   39 1    
    36   16   40 1    
    37   17   19 1    
    38   17   25 1    
    39   17   41 1    
    40   17   42 1    
    41   18   20 1    
    42   18   25 1    
    43   18   43 1    
    44   18   44 1    
    45   19   26 1    
    46   19   45 1    
    47   19   46 1    
    48   20   26 1    
    49   20   47 1    
    50   20   48 1    
    51   21   49 1    
    52   21   50 1    
    53   21   51 1    
    54   23   24 1    
@<TRIPOS>SUBSTRUCTURE
     1 UNK         1 GROUP             0       ****    0 ROOT    
@<TRIPOS>MOLECULE
ZINC07455501_54
47   49    1
SMALL
USER_CHARGES


@<TRIPOS>ATOM
      1 C1         -7.6414  -14.2379   35.2360 C.ar      1 UNK        -0.1150 
      2 C2         -8.3507  -14.9107   36.2489 C.ar      1 UNK        -0.1150 
      3 C3         -7.0842  -12.9709   35.4923 C.ar      1 UNK        -0.1150 
      4 C4         -8.4999  -14.3196   37.5185 C.ar      1 UNK        -0.1150 
      5 C5         -7.2321  -12.3790   36.7619 C.ar      1 UNK        -0.1150 
      6 C6        -10.8631   -5.0359   36.9274 C.ar      1 UNK        -0.1150 
      7 C7        -10.5140   -6.1582   36.1545 C.ar      1 UNK        -0.1150 
      8 C8        -10.2987   -6.2462   38.9579 C.ar      1 UNK        -0.1150 
      9 C9         -7.9290  -13.0534   37.7917 C.ar      1 UNK         0.0850 
     10 C10        -9.9461   -7.3802   38.1866 C.ar      1 UNK         0.0850 
     11 C11       -10.7601   -5.0635   38.3302 C.ar      1 UNK         0.0850 
     12 C12       -10.0508   -7.3411   36.7787 C.ar      1 UNK         0.0850 
     13 C13        -8.0386  -12.3049   41.4358 C.ar      1 UNK        -0.1717 
     14 C14        -8.5025  -11.0243   41.4294 C.ar      1 UNK        -0.0947 
     15 C15        -8.7537  -10.4222   40.1117 C.ar      1 UNK         0.6326 
     16 C16        -7.7934  -13.0739   40.2165 C.ar      1 UNK         0.5567 
     17 C17        -9.2515   -9.0020   39.9976 C.2       1 UNK         0.3238 
     18 C18       -11.0255   -3.9106   40.4196 C.3       1 UNK         0.1100 
     19 C19        -9.7753   -8.4733   34.6750 C.3       1 UNK         0.1100 
     20 C20        -8.4704  -10.9130   43.8427 C.3       1 UNK         0.1100 
     21 N21        -8.5517  -11.1028   39.0271 N.2       1 UNK        -0.2833 
     22 N22        -8.1022  -12.4126   39.0556 N.pl3     1 UNK        -0.0784 
     23 N23        -9.4791   -8.6081   38.7265 N.am      1 UNK        -0.3850 
     24 O24        -7.3338  -14.2131   40.2482 O.2       1 UNK        -0.5000 
     25 O25        -9.4271   -8.2699   40.9717 O.2       1 UNK        -0.5000 
     26 O26       -11.1238   -3.9165   39.0020 O.3       1 UNK        -0.2850 
     27 O27        -9.6858   -8.4835   36.0923 O.3       1 UNK        -0.2850 
     28 O28        -8.7287  -10.3014   42.5850 O.3       1 UNK        -0.2850 
     29 H29        -7.5258  -14.6937   34.2629 H         1 UNK         0.1150 
     30 H30        -8.7812  -15.8823   36.0540 H         1 UNK         0.1150 
     31 H31        -6.5415  -12.4527   34.7151 H         1 UNK         0.1150 
     32 H32        -9.0503  -14.8473   38.2842 H         1 UNK         0.1150 
     33 H33        -6.8001  -11.4058   36.9441 H         1 UNK         0.1150 
     34 H34       -11.2153   -4.1384   36.4403 H         1 UNK         0.1150 
     35 H35       -10.6125   -6.0825   35.0830 H         1 UNK         0.1150 
     36 H36       -10.2173   -6.2821   40.0304 H         1 UNK         0.1150 
     37 H37        -7.8244  -12.8228   42.3562 H         1 UNK         0.1150 
     38 H38       -11.3436   -2.9397   40.7989 H         1 UNK         0.0300 
     39 H39        -9.9980   -4.0723   40.7492 H         1 UNK         0.0300 
     40 H40       -11.6720   -4.6667   40.8677 H         1 UNK         0.0300 
     41 H41        -9.4524   -9.4398   34.2876 H         1 UNK         0.0300 
     42 H42        -9.1275   -7.7111   34.2400 H         1 UNK         0.0300 
     43 H43       -10.8011   -8.3108   34.3411 H         1 UNK         0.0300 
     44 H44        -8.7016  -10.2031   44.6368 H         1 UNK         0.0300 
     45 H45        -7.4202  -11.1891   43.9478 H         1 UNK         0.0300 
     46 H46        -9.0970  -11.7922   43.9984 H         1 UNK         0.0300 
     47 H47        -9.2892   -9.3087   38.0213 H         1 UNK         0.3000 
@<TRIPOS>BOND
     1    1    2 ar   
     2    1    3 ar   
     3    1   29 1    
     4    2    4 ar   
     5    2   30 1    
     6    3    5 ar   
     7    3   31 1    
     8    4    9 ar   
     9    4   32 1    
    10    5    9 ar   
    11    5   33 1    
    12    6    7 ar   
    13    6   11 ar   
    14    6   34 1    
    15    7   12 ar   
    16    7   35 1    
    17    8   10 ar   
    18    8   11 ar   
    19    8   36 1    
    20    9   22 1    
    21   10   12 ar   
    22   10   23 1    
    23   11   26 1    
    24   12   27 1    
    25   13   14 ar   
    26   13   16 ar   
    27   13   37 1    
    28   14   15 ar   
    29   14   28 1    
    30   15   17 1    
    31   15   21 ar   
    32   16   22 ar   
    33   16   24 2    
    34   17   23 am   BACKBONE|DICT|INTERRES
    35   17   25 2    
    36   18   26 1    
    37   18   38 1    
    38   18   39 1    
    39   18   40 1    
    40   19   27 1    
    41   19   41 1    
    42   19   42 1    
    43   19   43 1    
    44   20   28 1    
    45   20   44 1    
    46   20   45 1    
    47   20   46 1    
    48   21   22 ar   
    49   23   47 1    
@<TRIPOS>SUBSTRUCTURE
     1 UNK         1 GROUP             0       ****    0 ROOT    
@<TRIPOS>MOLECULE
ZINC07458232_26
49   51    1
SMALL
USER_CHARGES


@<TRIPOS>ATOM
      1 C1         -8.3251  -15.1695   36.1730 C.ar      1 UNK        -0.1150 
      2 C2         -7.0479  -13.1554   35.6726 C.ar      1 UNK        -0.1150 
      3 C3        -11.1135   -5.4005   37.2028 C.ar      1 UNK        -0.1150 
      4 C4         -8.6162  -14.6672   37.4559 C.ar      1 UNK        -0.1150 
      5 C5         -7.3382  -12.6531   36.9558 C.ar      1 UNK        -0.1150 
      6 C6        -10.6195   -6.4517   36.4082 C.ar      1 UNK        -0.1150 
      7 C7        -10.7940   -6.7583   39.2003 C.ar      1 UNK        -0.1150 
      8 C8         -7.5376  -14.4171   35.2790 C.ar      1 UNK        -0.1150 
      9 C9        -11.2021   -5.5512   38.6000 C.ar      1 UNK        -0.1150 
     10 C10        -8.1129  -13.4096   37.8653 C.ar      1 UNK         0.0850 
     11 C11       -10.2962   -7.8176   38.4054 C.ar      1 UNK         0.0850 
     12 C12       -10.2068   -7.6697   37.0028 C.ar      1 UNK         0.0850 
     13 C13        -8.6268  -12.9105   41.5175 C.ar      1 UNK        -0.1717 
     14 C14        -9.1308  -11.6453   41.5435 C.ar      1 UNK        -0.0947 
     15 C15        -9.2549  -10.9599   40.2487 C.ar      1 UNK         0.6326 
     16 C16        -8.2251  -13.5875   40.2850 C.ar      1 UNK         0.5567 
     17 C17        -9.7801   -9.5472   40.1731 C.2       1 UNK         0.3238 
     18 C18        -7.2267  -14.9625   33.9005 C.3       1 UNK        -0.0650 
     19 C19       -11.7320   -4.4247   39.4633 C.3       1 UNK        -0.0650 
     20 C20        -9.6272   -8.6372   34.8786 C.3       1 UNK         0.1100 
     21 C21        -9.3712  -11.7023   43.9470 C.3       1 UNK         0.1100 
     22 N22        -8.9148  -11.5599   39.1511 N.2       1 UNK        -0.2833 
     23 N23        -8.4318  -12.8577   39.1427 N.pl3     1 UNK        -0.0784 
     24 N24        -9.8662   -9.0705   38.9133 N.am      1 UNK        -0.3850 
     25 O25        -7.7305  -14.7124   40.2932 O.2       1 UNK        -0.5000 
     26 O26       -10.0938   -8.8906   41.1662 O.2       1 UNK        -0.5000 
     27 O27        -9.7114   -8.7463   36.2917 O.3       1 UNK        -0.2850 
     28 O28        -9.5062  -11.0103   42.7118 O.3       1 UNK        -0.2850 
     29 H29        -8.7099  -16.1359   35.8804 H         1 UNK         0.1150 
     30 H30        -6.4477  -12.5670   34.9938 H         1 UNK         0.1150 
     31 H31       -11.4237   -4.4785   36.7327 H         1 UNK         0.1150 
     32 H32        -9.2247  -15.2565   38.1267 H         1 UNK         0.1150 
     33 H33        -6.9567  -11.6838   37.2413 H         1 UNK         0.1150 
     34 H34       -10.5673   -6.2961   35.3422 H         1 UNK         0.1150 
     35 H35       -10.8728   -6.8495   40.2726 H         1 UNK         0.1150 
     36 H36        -8.4964  -13.4844   42.4200 H         1 UNK         0.1150 
     37 H37        -8.0628  -14.7792   33.2252 H         1 UNK         0.0600 
     38 H38        -6.3369  -14.4915   33.4817 H         1 UNK         0.0600 
     39 H39        -7.0484  -16.0374   33.9432 H         1 UNK         0.0600 
     40 H40       -12.5664   -4.7745   40.0720 H         1 UNK         0.0600 
     41 H41       -10.9495   -4.0628   40.1310 H         1 UNK         0.0600 
     42 H42       -12.0804   -3.5861   38.8599 H         1 UNK         0.0600 
     43 H43        -9.2266   -9.5648   34.4697 H         1 UNK         0.0300 
     44 H44        -8.9572   -7.8296   34.5802 H         1 UNK         0.0300 
     45 H45       -10.6096   -8.4771   34.4323 H         1 UNK         0.0300 
     46 H46        -9.7155  -11.0570   44.7551 H         1 UNK         0.0300 
     47 H47        -8.3307  -11.9569   44.1538 H         1 UNK         0.0300 
     48 H48        -9.9803  -12.6070   43.9699 H         1 UNK         0.0300 
     49 H49        -9.5695   -9.7136   38.1905 H         1 UNK         0.3000 
@<TRIPOS>BOND
     1    1    4 ar   
     2    1    8 ar   
     3    1   29 1    
     4    2    5 ar   
     5    2    8 ar   
     6    2   30 1    
     7    3    6 ar   
     8    3    9 ar   
     9    3   31 1    
    10    4   10 ar   
    11    4   32 1    
    12    5   10 ar   
    13    5   33 1    
    14    6   12 ar   
    15    6   34 1    
    16    7    9 ar   
    17    7   11 ar   
    18    7   35 1    
    19    8   18 1    
    20    9   19 1    
    21   10   23 1    
    22   11   12 ar   
    23   11   24 1    
    24   12   27 1    
    25   13   14 ar   
    26   13   16 ar   
    27   13   36 1    
    28   14   15 ar   
    29   14   28 1    
    30   15   17 1    
    31   15   22 ar   
    32   16   23 ar   
    33   16   25 2    
    34   17   24 am   BACKBONE|DICT|INTERRES
    35   17   26 2    
    36   18   37 1    
    37   18   38 1    
    38   18   39 1    
    39   19   40 1    
    40   19   41 1    
    41   19   42 1    
    42   20   27 1    
    43   20   43 1    
    44   20   44 1    
    45   20   45 1    
    46   21   28 1    
    47   21   46 1    
    48   21   47 1    
    49   21   48 1    
    50   22   23 ar   
    51   24   49 1    
@<TRIPOS>SUBSTRUCTURE
     1 UNK         1 GROUP             0       ****    0 ROOT    
@<TRIPOS>MOLECULE
ZINC08037308_61
43   45    1
SMALL
USER_CHARGES


@<TRIPOS>ATOM
      1 C1         -7.1542  -12.8741   35.3551 C.ar      1 UNK        -0.1150 
      2 C2         -7.5977  -12.3164   36.5696 C.ar      1 UNK        -0.1150 
      3 C3         -6.8708  -14.2504   35.2709 C.ar      1 UNK        -0.1150 
      4 C4         -8.4646  -13.0961   40.2138 C.2       1 UNK        -0.1540 
      5 C5         -8.8935  -12.0220   41.0425 C.2       1 UNK        -0.1540 
      6 C6         -7.4749  -14.5081   37.6146 C.ar      1 UNK        -0.1150 
      7 C7         -7.7642  -13.1263   37.7165 C.ar      1 UNK        -0.4134 
      8 C8         -7.0303  -15.0782   36.4021 C.ar      1 UNK         0.1500 
      9 C9         -8.2205  -12.5571   38.9816 C.2       1 UNK         0.5364 
     10 C10        -8.9034  -10.9012   40.2579 C.2       1 UNK         0.0453 
     11 C11        -9.2208   -9.4977   40.6150 C.2       1 UNK         0.5777 
     12 C12       -11.2377   -5.7821   36.8409 C.2       1 UNK         0.5000 
     13 C13        -9.8315   -7.2155   39.9747 C.3       1 UNK        -0.0500 
     14 C14       -10.1978   -9.0669   38.3495 C.3       1 UNK        -0.0500 
     15 C15        -9.7520   -6.3398   38.7106 C.3       1 UNK        -0.0500 
     16 C16       -11.2391   -8.0973   37.7509 C.3       1 UNK        -0.0500 
     17 C17       -12.3691   -6.1604   35.8859 C.3       1 UNK        -0.1800 
     18 C18        -6.7234  -16.5701   36.3374 C.3       1 UNK         0.4500 
     19 N19        -9.6975   -8.6472   39.6697 N.am      1 UNK        -0.1400 
     20 N20       -10.7722   -6.7033   37.7180 N.am      1 UNK        -0.1400 
     21 O21        -9.0433   -9.1457   41.7809 O.2       1 UNK        -0.5000 
     22 O22       -10.7931   -4.6372   36.7869 O.2       1 UNK        -0.5000 
     23 O23        -8.4737  -11.2196   39.0028 O.3       1 UNK        -0.1900 
     24 F24        -6.4822  -16.9749   35.0895 F         1 UNK        -0.2000 
     25 F25        -5.6524  -16.8344   37.0856 F         1 UNK        -0.2000 
     26 F26        -7.7577  -17.2638   36.8137 F         1 UNK        -0.2000 
     27 H27        -7.0276  -12.2448   34.4856 H         1 UNK         0.1150 
     28 H28        -7.8044  -11.2557   36.6096 H         1 UNK         0.1150 
     29 H29        -6.5280  -14.6701   34.3370 H         1 UNK         0.1150 
     30 H30        -8.3405  -14.1332   40.4867 H         1 UNK         0.1260 
     31 H31        -9.1611  -12.0520   42.0893 H         1 UNK         0.1260 
     32 H32        -7.5871  -15.1590   38.4695 H         1 UNK         0.1150 
     33 H33        -9.0475   -6.8905   40.6623 H         1 UNK         0.0600 
     34 H34       -10.7785   -7.0518   40.4912 H         1 UNK         0.0600 
     35 H35       -10.6589  -10.0543   38.4074 H         1 UNK         0.0600 
     36 H36        -9.3485   -9.1525   37.6696 H         1 UNK         0.0600 
     37 H37        -9.8563   -5.2952   39.0119 H         1 UNK         0.0600 
     38 H38        -8.7676   -6.4274   38.2483 H         1 UNK         0.0600 
     39 H39       -11.4877   -8.4553   36.7513 H         1 UNK         0.0600 
     40 H40       -12.1604   -8.1364   38.3344 H         1 UNK         0.0600 
     41 H41       -13.2004   -6.6155   36.4236 H         1 UNK         0.0600 
     42 H42       -12.0126   -6.8508   35.1219 H         1 UNK         0.0600 
     43 H43       -12.7469   -5.2705   35.3817 H         1 UNK         0.0600 
@<TRIPOS>BOND
     1    1    2 ar   
     2    1    3 ar   
     3    1   27 1    
     4    2    7 ar   
     5    2   28 1    
     6    3    8 ar   
     7    3   29 1    
     8    4    5 1    
     9    4    9 2    
    10    4   30 1    
    11    5   10 2    
    12    5   31 1    
    13    6    7 ar   
    14    6    8 ar   
    15    6   32 1    
    16    7    9 1    
    17    8   18 1    
    18    9   23 1    
    19   10   11 1    
    20   10   23 1    
    21   11   19 am   BACKBONE|DICT|INTERRES
    22   11   21 2    
    23   12   17 1    
    24   12   20 am   BACKBONE|DICT|INTERRES
    25   12   22 2    
    26   13   15 1    
    27   13   19 1    
    28   13   33 1    
    29   13   34 1    
    30   14   16 1    
    31   14   19 1    
    32   14   35 1    
    33   14   36 1    
    34   15   20 1    
    35   15   37 1    
    36   15   38 1    
    37   16   20 1    
    38   16   39 1    
    39   16   40 1    
    40   17   41 1    
    41   17   42 1    
    42   17   43 1    
    43   18   24 1    
    44   18   25 1    
    45   18   26 1    
@<TRIPOS>SUBSTRUCTURE
     1 UNK         1 GROUP             0       ****    0 ROOT    
@<TRIPOS>MOLECULE
ZINC08103211_84
49   52    1
SMALL
USER_CHARGES


@<TRIPOS>ATOM
      1 C1         -4.3847  -11.9761   33.7361 C.ar      1 UNK         0.0055 
      2 C2         -3.4394  -11.0690   33.2202 C.ar      1 UNK        -0.3011 
      3 C3         -4.9182  -11.7808   35.0256 C.ar      1 UNK        -0.4461 
      4 C4         -3.0267   -9.9674   33.9937 C.ar      1 UNK        -0.1407 
      5 C5         -8.0613   -5.6820   38.6898 C.ar      1 UNK        -0.1150 
      6 C6         -6.1541   -4.2781   39.2349 C.ar      1 UNK        -0.1150 
      7 C7         -6.9172   -5.4333   39.4766 C.ar      1 UNK        -0.1150 
      8 C8         -4.5242  -10.6867   35.8240 C.ar      1 UNK         0.6314 
      9 C9         -8.4241   -4.8195   37.6230 C.ar      1 UNK         0.0850 
     10 C10        -7.6085   -3.6797   37.3529 C.ar      1 UNK         0.0850 
     11 C11        -3.5657   -9.7828   35.2804 C.ar      1 UNK        -0.1027 
     12 C12        -6.4939   -3.4138   38.1815 C.ar      1 UNK         0.1800 
     13 C13        -4.3816   -9.2741   37.5511 C.2       1 UNK         0.2008 
     14 C14        -6.5476   -6.3409   40.6138 C.2       1 UNK         0.6150 
     15 C15        -4.6487   -9.0668   41.4229 C.3       1 UNK        -0.1200 
     16 C16        -4.2593   -9.6419   40.0484 C.3       1 UNK        -0.1200 
     17 C17        -6.1258   -8.6312   41.4388 C.3       1 UNK        -0.0500 
     18 C18        -6.1505   -8.2594   39.0315 C.3       1 UNK        -0.0500 
     19 C19        -4.6791   -8.7016   38.9004 C.3       1 UNK         0.0550 
     20 C20       -10.3765   -6.1627   37.1408 C.3       1 UNK         0.1100 
     21 C21        -8.4789   -3.1922   35.1498 C.3       1 UNK         0.1100 
     22 N22        -4.9791  -10.3864   37.1038 N.2       1 UNK        -0.5991 
     23 N23        -6.3626   -7.6611   40.3600 N.am      1 UNK        -0.1400 
     24 O24        -6.4275   -5.8532   41.7362 O.2       1 UNK        -0.5000 
     25 O25        -9.5536   -5.0396   36.8592 O.3       1 UNK        -0.2850 
     26 O26        -7.8353   -2.7660   36.3411 O.3       1 UNK        -0.2850 
     27 S27        -3.2314   -8.5081   36.4469 S.3       1 UNK        -0.0839 
     28 Cl28       -5.5064   -2.0241   37.9005 Cl        1 UNK        -0.1800 
     29 H29        -4.7015  -12.8225   33.1430 H         1 UNK         0.1296 
     30 H30        -3.0311  -11.2200   32.2294 H         1 UNK         0.1749 
     31 H31        -5.6424  -12.4739   35.4236 H         1 UNK         0.2114 
     32 H32        -2.3022   -9.2646   33.6092 H         1 UNK         0.2050 
     33 H33        -8.6523   -6.5517   38.9331 H         1 UNK         0.1150 
     34 H34        -5.2982   -4.0540   39.8558 H         1 UNK         0.1150 
     35 H35        -4.4662   -9.8072   42.2028 H         1 UNK         0.0600 
     36 H36        -4.0144   -8.2105   41.6579 H         1 UNK         0.0600 
     37 H37        -3.1866   -9.8346   40.0072 H         1 UNK         0.0600 
     38 H38        -4.7490  -10.6082   39.9172 H         1 UNK         0.0600 
     39 H39        -6.7753   -9.4958   41.2941 H         1 UNK         0.0600 
     40 H40        -6.3851   -8.2301   42.4206 H         1 UNK         0.0600 
     41 H41        -6.3799   -7.5907   38.2042 H         1 UNK         0.0600 
     42 H42        -6.8138   -9.1174   38.9125 H         1 UNK         0.0600 
     43 H43        -4.0687   -7.8013   38.9902 H         1 UNK         0.0600 
     44 H44       -11.2143   -6.1755   36.4438 H         1 UNK         0.0300 
     45 H45       -10.7900   -6.1126   38.1490 H         1 UNK         0.0300 
     46 H46        -9.8317   -7.0993   37.0156 H         1 UNK         0.0300 
     47 H47        -8.2204   -2.5080   34.3419 H         1 UNK         0.0300 
     48 H48        -9.5632   -3.1671   35.2583 H         1 UNK         0.0300 
     49 H49        -8.1627   -4.1907   34.8449 H         1 UNK         0.0300 
@<TRIPOS>BOND
     1    1    2 ar   
     2    1    3 ar   
     3    1   29 1    
     4    2    4 ar   
     5    2   30 1    
     6    3    8 ar   
     7    3   31 1    
     8    4   11 ar   
     9    4   32 1    
    10    5    7 ar   
    11    5    9 ar   
    12    5   33 1    
    13    6    7 ar   
    14    6   12 ar   
    15    6   34 1    
    16    7   14 1    
    17    8   11 ar   
    18    8   22 1    
    19    9   10 ar   
    20    9   25 1    
    21   10   12 ar   
    22   10   26 1    
    23   11   27 1    
    24   12   28 1    
    25   13   19 1    
    26   13   22 2    
    27   13   27 1    
    28   14   23 am   BACKBONE|DICT|INTERRES
    29   14   24 2    
    30   15   16 1    
    31   15   17 1    
    32   15   35 1    
    33   15   36 1    
    34   16   19 1    
    35   16   37 1    
    36   16   38 1    
    37   17   23 1    
    38   17   39 1    
    39   17   40 1    
    40   18   19 1    
    41   18   23 1    
    42   18   41 1    
    43   18   42 1    
    44   19   43 1    
    45   20   25 1    
    46   20   44 1    
    47   20   45 1    
    48   20   46 1    
    49   21   26 1    
    50   21   47 1    
    51   21   48 1    
    52   21   49 1    
@<TRIPOS>SUBSTRUCTURE
     1 UNK         1 GROUP             0       ****    0 ROOT    
@<TRIPOS>MOLECULE
ZINC08395673_119
45   48    1
SMALL
USER_CHARGES


@<TRIPOS>ATOM
      1 C1         -3.6383   -9.8335   35.4200 C.ar      1 UNK        -0.1509 
      2 C2         -4.3477  -11.0292   35.1613 C.ar      1 UNK        -0.1840 
      3 C3         -3.7833   -9.1640   36.6571 C.ar      1 UNK        -0.3715 
      4 C4         -5.2102  -11.5659   36.1406 C.ar      1 UNK        -0.3016 
      5 C5         -6.9982   -3.8814   39.5511 C.ar      1 UNK        -0.1150 
      6 C6         -7.7338   -5.9338   38.4581 C.ar      1 UNK        -0.1150 
      7 C7         -7.0058   -5.2888   39.4797 C.ar      1 UNK         0.0000 
      8 C8         -4.6396   -9.6884   37.6468 C.ar      1 UNK         0.4773 
      9 C9         -5.3359  -10.8828   37.3605 C.ar      1 UNK         0.2571 
     10 C10        -7.7129   -3.1081   38.6057 C.ar      1 UNK         0.0850 
     11 C11        -8.4513   -5.1804   37.4989 C.ar      1 UNK         0.0850 
     12 C12        -8.4316   -3.7691   37.5840 C.ar      1 UNK         0.0850 
     13 C13        -6.2611   -6.0696   40.4616 C.2       1 UNK         0.5614 
     14 C14        -5.8365  -10.1914   39.3415 C.2       1 UNK         0.4356 
     15 C15        -5.6293   -7.7835   41.5087 C.2       1 UNK         0.7139 
     16 C16        -7.0547   -1.0396   39.6422 C.3       1 UNK         0.1100 
     17 C17        -9.2019   -7.1600   36.3543 C.3       1 UNK         0.1100 
     18 C18        -8.4106   -2.7737   35.4807 C.3       1 UNK         0.1100 
     19 C19        -6.5520  -10.2286   40.6593 C.3       1 UNK         0.1625 
     20 N20        -4.9743   -9.2544   38.9117 N.2       1 UNK        -0.6626 
     21 N21        -5.2786   -5.6639   41.2720 N.2       1 UNK        -0.3751 
     22 N22        -4.8664   -6.7853   41.9569 N.2       1 UNK        -0.3751 
     23 O23        -6.1127  -11.2006   38.4574 O.3       1 UNK        -0.3739 
     24 O24        -6.5677   -7.3847   40.6122 O.3       1 UNK        -0.3726 
     25 O25        -7.7471   -1.7287   38.6118 O.3       1 UNK        -0.2850 
     26 O26        -9.1766   -5.7452   36.4694 O.3       1 UNK        -0.2850 
     27 O27        -9.1344   -3.0242   36.6730 O.3       1 UNK        -0.2850 
     28 S28        -5.5798   -9.4744   42.0029 S.3       1 UNK        -0.3200 
     29 H29        -2.9767   -9.4283   34.6658 H         1 UNK         0.1601 
     30 H30        -4.2263  -11.5335   34.2114 H         1 UNK         0.1678 
     31 H31        -3.2420   -8.2525   36.8605 H         1 UNK         0.2208 
     32 H32        -5.7609  -12.4777   35.9672 H         1 UNK         0.2108 
     33 H33        -6.4323   -3.4163   40.3442 H         1 UNK         0.1150 
     34 H34        -7.7191   -7.0119   38.4201 H         1 UNK         0.1150 
     35 H35        -7.1967    0.0334   39.5142 H         1 UNK         0.0300 
     36 H36        -5.9825   -1.2369   39.6036 H         1 UNK         0.0300 
     37 H37        -7.4374   -1.3060   40.6283 H         1 UNK         0.0300 
     38 H38        -9.8126   -7.4391   35.4956 H         1 UNK         0.0300 
     39 H39        -9.6442   -7.6241   37.2368 H         1 UNK         0.0300 
     40 H40        -8.2020   -7.5655   36.1934 H         1 UNK         0.0300 
     41 H41        -9.0121   -2.1604   34.8100 H         1 UNK         0.0300 
     42 H42        -8.1666   -3.7001   34.9592 H         1 UNK         0.0300 
     43 H43        -7.4849   -2.2349   35.6881 H         1 UNK         0.0300 
     44 H44        -7.5234   -9.7440   40.5641 H         1 UNK         0.0600 
     45 H45        -6.7414  -11.2692   40.9214 H         1 UNK         0.0600 
@<TRIPOS>BOND
     1    1    2 ar   
     2    1    3 ar   
     3    1   29 1    
     4    2    4 ar   
     5    2   30 1    
     6    3    8 ar   
     7    3   31 1    
     8    4    9 ar   
     9    4   32 1    
    10    5    7 ar   
    11    5   10 ar   
    12    5   33 1    
    13    6    7 ar   
    14    6   11 ar   
    15    6   34 1    
    16    7   13 1    
    17    8    9 ar   
    18    8   20 1    
    19    9   23 1    
    20   10   12 ar   
    21   10   25 1    
    22   11   12 ar   
    23   11   26 1    
    24   12   27 1    
    25   13   21 2    
    26   13   24 1    
    27   14   19 1    
    28   14   20 2    
    29   14   23 1    
    30   15   22 2    
    31   15   24 1    
    32   15   28 1    
    33   16   25 1    
    34   16   35 1    
    35   16   36 1    
    36   16   37 1    
    37   17   26 1    
    38   17   38 1    
    39   17   39 1    
    40   17   40 1    
    41   18   27 1    
    42   18   41 1    
    43   18   42 1    
    44   18   43 1    
    45   19   28 1    
    46   19   44 1    
    47   19   45 1    
    48   21   22 1    
@<TRIPOS>SUBSTRUCTURE
     1 UNK         1 GROUP             0       ****    0 ROOT    
@<TRIPOS>MOLECULE
ZINC08400910_6
38   40    1
SMALL
USER_CHARGES


@<TRIPOS>ATOM
      1 C1         -6.7393   -3.9179   39.4893 C.ar      1 UNK        -0.1150 
      2 C2         -7.8110   -5.8824   38.5269 C.ar      1 UNK        -0.1150 
      3 C3         -6.9547   -5.3116   39.4916 C.ar      1 UNK         0.0000 
      4 C4         -7.3633   -3.0900   38.5259 C.ar      1 UNK         0.0850 
      5 C5         -8.4418   -5.0759   37.5500 C.ar      1 UNK         0.0850 
      6 C6         -8.2043   -3.6819   37.5572 C.ar      1 UNK         0.0850 
      7 C7         -6.2890   -6.1415   40.4980 C.ar      1 UNK         0.4100 
      8 C8         -5.2585   -7.6811   41.5076 C.ar      1 UNK         0.5625 
      9 C9         -5.3524   -9.3328   39.1195 C.2       1 UNK         0.3175 
     10 C10        -5.0532  -10.1282   40.3860 C.3       1 UNK         0.0836 
     11 C11        -5.2663  -10.1278   37.8370 C.3       1 UNK        -0.1439 
     12 C12        -6.4206   -1.0925   39.4762 C.3       1 UNK         0.1100 
     13 C13        -9.5643   -6.9640   36.5683 C.3       1 UNK         0.1100 
     14 C14        -8.1491   -2.8615   35.3789 C.3       1 UNK         0.1100 
     15 N15        -6.1346   -5.7323   41.7648 N.2       1 UNK        -0.3633 
     16 N16        -5.4619   -6.7399   42.4250 N.2       1 UNK        -0.3633 
     17 N17        -5.6889   -8.1067   39.1037 N.2       1 UNK        -0.3897 
     18 N18        -5.7532   -7.3678   40.2930 N.pl3     1 UNK        -0.0934 
     19 O19        -7.1919   -1.7222   38.4640 O.3       1 UNK        -0.2850 
     20 O20        -9.2877   -5.5720   36.5785 O.3       1 UNK        -0.2850 
     21 O21        -8.8160   -2.8797   36.6290 O.3       1 UNK        -0.2850 
     22 S22        -4.4027   -9.1885   41.8004 S.3       1 UNK        -0.3200 
     23 H23        -6.0846   -3.5061   40.2424 H         1 UNK         0.1150 
     24 H24        -7.9762   -6.9470   38.5584 H         1 UNK         0.1150 
     25 H25        -5.9783  -10.6074   40.7061 H         1 UNK         0.0600 
     26 H26        -4.3492  -10.9291   40.1598 H         1 UNK         0.0600 
     27 H27        -5.8528  -11.0432   37.9162 H         1 UNK         0.0600 
     28 H28        -4.2295  -10.3930   37.6287 H         1 UNK         0.0600 
     29 H29        -5.6480   -9.5484   36.9955 H         1 UNK         0.0600 
     30 H30        -6.4234   -0.0152   39.3113 H         1 UNK         0.0300 
     31 H31        -5.3825   -1.4263   39.4527 H         1 UNK         0.0300 
     32 H32        -6.8375   -1.2745   40.4677 H         1 UNK         0.0300 
     33 H33       -10.2484   -7.1879   35.7498 H         1 UNK         0.0300 
     34 H34       -10.0446   -7.2814   37.4948 H         1 UNK         0.0300 
     35 H35        -8.6576   -7.5495   36.4098 H         1 UNK         0.0300 
     36 H36        -8.6766   -2.1975   34.6944 H         1 UNK         0.0300 
     37 H37        -8.1153   -3.8524   34.9244 H         1 UNK         0.0300 
     38 H38        -7.1285   -2.4915   35.4862 H         1 UNK         0.0300 
@<TRIPOS>BOND
     1    1    3 ar   
     2    1    4 ar   
     3    1   23 1    
     4    2    3 ar   
     5    2    5 ar   
     6    2   24 1    
     7    3    7 1    
     8    4    6 ar   
     9    4   19 1    
    10    5    6 ar   
    11    5   20 1    
    12    6   21 1    
    13    7   15 ar   
    14    7   18 ar   
    15    8   16 ar   
    16    8   18 ar   
    17    8   22 1    
    18    9   10 1    
    19    9   11 1    
    20    9   17 2    
    21   10   22 1    
    22   10   25 1    
    23   10   26 1    
    24   11   27 1    
    25   11   28 1    
    26   11   29 1    
    27   12   19 1    
    28   12   30 1    
    29   12   31 1    
    30   12   32 1    
    31   13   20 1    
    32   13   33 1    
    33   13   34 1    
    34   13   35 1    
    35   14   21 1    
    36   14   36 1    
    37   14   37 1    
    38   14   38 1    
    39   15   16 ar   
    40   17   18 1    
@<TRIPOS>SUBSTRUCTURE
     1 UNK         1 GROUP             0       ****    0 ROOT    
@<TRIPOS>MOLECULE
ZINC08453208_82
46   49    1
SMALL
USER_CHARGES


@<TRIPOS>ATOM
      1 C1         -6.0455  -13.4038   35.8000 C.ar      1 UNK        -0.1150 
      2 C2         -3.6749  -13.1635   36.3018 C.ar      1 UNK        -0.1150 
      3 C3         -5.7340  -14.3465   34.8002 C.ar      1 UNK        -0.1150 
      4 C4         -3.3643  -14.1055   35.3022 C.ar      1 UNK        -0.1150 
      5 C5         -7.9055   -5.0689   39.2863 C.ar      1 UNK        -0.1150 
      6 C6         -9.2855   -6.9193   38.5292 C.ar      1 UNK        -0.1150 
      7 C7         -8.2250   -6.4384   39.3182 C.ar      1 UNK         0.0000 
      8 C8         -5.0123  -12.8011   36.5614 C.ar      1 UNK         0.0850 
      9 C9         -8.6199   -4.1638   38.4628 C.ar      1 UNK         0.0850 
     10 C10       -10.0151   -6.0424   37.6935 C.ar      1 UNK         0.0850 
     11 C11        -9.6759   -4.6686   37.6453 C.ar      1 UNK         0.0850 
     12 C12        -4.3949  -14.6972   34.5504 C.ar      1 UNK         0.2000 
     13 C13        -7.4524   -7.3341   40.1778 C.ar      1 UNK         0.4100 
     14 C14        -6.3100   -9.0536   40.9744 C.ar      1 UNK         0.4175 
     15 C15        -6.5849  -10.4131   38.9199 C.2       1 UNK         0.2035 
     16 C16        -7.2996   -2.3120   39.2864 C.3       1 UNK         0.1100 
     17 C17       -11.4432   -7.8237   36.9203 C.3       1 UNK         0.1100 
     18 C18        -9.9385   -2.7023   36.2516 C.3       1 UNK         0.1100 
     19 C19        -6.5522  -11.4584   37.8281 C.3       1 UNK         0.1818 
     20 N20        -7.0159   -7.0301   41.4126 N.2       1 UNK        -0.3633 
     21 N21        -6.2955   -8.1425   41.9148 N.2       1 UNK        -0.3633 
     22 N22        -7.2053   -9.2349   38.7775 N.2       1 UNK        -0.2500 
     23 N23        -7.0126   -8.5680   39.9329 N.pl3     1 UNK        -0.0934 
     24 O24        -8.3335   -2.8122   38.4498 O.3       1 UNK        -0.2850 
     25 O25       -11.0605   -6.4574   36.8921 O.3       1 UNK        -0.2850 
     26 O26       -10.4542   -3.9084   36.7920 O.3       1 UNK        -0.2850 
     27 O27        -5.2201  -11.8695   37.5535 O.3       1 UNK        -0.2850 
     28 S28        -5.7805  -10.6591   40.5107 S.3       1 UNK        -0.0028 
     29 Br29       -3.9798  -15.9685   33.1987 Br        1 UNK        -0.2000 
     30 H30        -7.0851  -13.1627   35.9590 H         1 UNK         0.1150 
     31 H31        -2.8787  -12.7113   36.8748 H         1 UNK         0.1150 
     32 H32        -6.5225  -14.8037   34.2207 H         1 UNK         0.1150 
     33 H33        -2.3361  -14.3744   35.1100 H         1 UNK         0.1150 
     34 H34        -7.0971   -4.7379   39.9203 H         1 UNK         0.1150 
     35 H35        -9.5274   -7.9684   38.5846 H         1 UNK         0.1150 
     36 H36        -7.2184   -1.2339   39.1488 H         1 UNK         0.0300 
     37 H37        -6.3327   -2.7481   39.0319 H         1 UNK         0.0300 
     38 H38        -7.5149   -2.4926   40.3404 H         1 UNK         0.0300 
     39 H39       -12.2820   -7.9743   36.2408 H         1 UNK         0.0300 
     40 H40       -11.7681   -8.1267   37.9166 H         1 UNK         0.0300 
     41 H41       -10.6310   -8.4721   36.5890 H         1 UNK         0.0300 
     42 H42       -10.5131   -2.4380   35.3643 H         1 UNK         0.0300 
     43 H43        -8.8957   -2.8027   35.9470 H         1 UNK         0.0300 
     44 H44       -10.0390   -1.8773   36.9573 H         1 UNK         0.0300 
     45 H45        -7.0123  -11.0431   36.9298 H         1 UNK         0.0300 
     46 H46        -7.1515  -12.3091   38.1551 H         1 UNK         0.0300 
@<TRIPOS>BOND
     1    1    3 ar   
     2    1    8 ar   
     3    1   30 1    
     4    2    4 ar   
     5    2    8 ar   
     6    2   31 1    
     7    3   12 ar   
     8    3   32 1    
     9    4   12 ar   
    10    4   33 1    
    11    5    7 ar   
    12    5    9 ar   
    13    5   34 1    
    14    6    7 ar   
    15    6   10 ar   
    16    6   35 1    
    17    7   13 1    
    18    8   27 1    
    19    9   11 ar   
    20    9   24 1    
    21   10   11 ar   
    22   10   25 1    
    23   11   26 1    
    24   12   29 1    
    25   13   20 ar   
    26   13   23 ar   
    27   14   21 ar   
    28   14   23 ar   
    29   14   28 1    
    30   15   19 1    
    31   15   22 2    
    32   15   28 1    
    33   16   24 1    
    34   16   36 1    
    35   16   37 1    
    36   16   38 1    
    37   17   25 1    
    38   17   39 1    
    39   17   40 1    
    40   17   41 1    
    41   18   26 1    
    42   18   42 1    
    43   18   43 1    
    44   18   44 1    
    45   19   27 1    
    46   19   45 1    
    47   19   46 1    
    48   20   21 ar   
    49   22   23 1    
@<TRIPOS>SUBSTRUCTURE
     1 UNK         1 GROUP             0       ****    0 ROOT    
@<TRIPOS>MOLECULE
ZINC08487807_11
45   48    1
SMALL
USER_CHARGES


@<TRIPOS>ATOM
      1 C1         -5.4431  -10.4305   35.0131 C.ar      1 UNK        -0.2222 
      2 C2         -5.9235  -11.7511   35.1073 C.ar      1 UNK        -0.0888 
      3 C3         -5.3528   -9.6210   36.1645 C.ar      1 UNK        -0.2243 
      4 C4         -7.5318   -4.7720   39.6817 C.ar      1 UNK        -0.1150 
      5 C5         -6.3178  -12.2662   36.3566 C.ar      1 UNK        -0.3541 
      6 C6         -8.0428   -4.0308   38.6028 C.ar      1 UNK        -0.1150 
      7 C7         -8.1256   -6.8216   38.5208 C.ar      1 UNK        -0.1150 
      8 C8         -5.7411  -10.1104   37.4331 C.ar      1 UNK         0.1233 
      9 C9         -7.5484   -6.1770   39.6364 C.ar      1 UNK        -0.1150 
     10 C10        -5.7890   -9.5649   38.7601 C.ar      1 UNK        -0.1749 
     11 C11        -6.2267  -11.4526   37.4993 C.ar      1 UNK         0.2860 
     12 C12        -8.5903   -4.6622   37.4673 C.ar      1 UNK         0.0850 
     13 C13        -8.6323   -6.0898   37.4157 C.ar      1 UNK         0.0850 
     14 C14        -6.2747  -10.5455   39.5781 C.ar      1 UNK        -0.0293 
     15 C15        -7.0253   -6.9731   40.8002 C.2       1 UNK         0.6150 
     16 C16        -5.4237   -8.2085   39.2883 C.3       1 UNK         0.0059 
     17 C17        -6.5056  -10.3827   41.0475 C.3       1 UNK        -0.0050 
     18 C18        -5.9037   -9.0444   41.5487 C.3       1 UNK        -0.0500 
     19 C19        -9.7173   -4.2584   35.3479 C.3       1 UNK         0.1100 
     20 C20        -9.0828   -8.1455   36.2209 C.3       1 UNK         0.1100 
     21 N21        -6.5416  -11.6759   38.8276 N.pl3     1 UNK        -0.4786 
     22 N22        -6.1396   -7.9720   40.5597 N.am      1 UNK        -0.1400 
     23 O23        -7.4389   -6.7099   41.9292 O.2       1 UNK        -0.5000 
     24 O24        -9.0363   -3.7835   36.4979 O.3       1 UNK        -0.2850 
     25 O25        -9.1537   -6.7282   36.3073 O.3       1 UNK        -0.2850 
     26 H26        -5.1410  -10.0359   34.0526 H         1 UNK         0.1489 
     27 H27        -5.9887  -12.3670   34.2208 H         1 UNK         0.1359 
     28 H28        -4.9864   -8.6090   36.0803 H         1 UNK         0.1699 
     29 H29        -7.1271   -4.2617   40.5448 H         1 UNK         0.1150 
     30 H30        -6.6869  -13.2775   36.4321 H         1 UNK         0.1796 
     31 H31        -8.0197   -2.9516   38.6439 H         1 UNK         0.1150 
     32 H32        -8.1581   -7.9001   38.5361 H         1 UNK         0.1150 
     33 H33        -4.3533   -8.1736   39.4931 H         1 UNK         0.0600 
     34 H34        -5.5854   -7.4370   38.5367 H         1 UNK         0.0600 
     35 H35        -7.5788  -10.3899   41.2424 H         1 UNK         0.0600 
     36 H36        -6.0788  -11.2192   41.6018 H         1 UNK         0.0600 
     37 H37        -6.2830   -8.8076   42.5442 H         1 UNK         0.0600 
     38 H38        -4.8249   -9.1553   41.6637 H         1 UNK         0.0600 
     39 H39       -10.0506   -3.4063   34.7559 H         1 UNK         0.0300 
     40 H40       -10.6042   -4.8343   35.6147 H         1 UNK         0.0300 
     41 H41        -9.0614   -4.8549   34.7128 H         1 UNK         0.0300 
     42 H42        -9.4800   -8.4658   35.2581 H         1 UNK         0.0300 
     43 H43        -9.6807   -8.6246   36.9972 H         1 UNK         0.0300 
     44 H44        -8.0538   -8.5008   36.2831 H         1 UNK         0.0300 
     45 H45        -6.9141  -12.5311   39.2113 H         1 UNK         0.3577 
@<TRIPOS>BOND
     1    1    2 ar   
     2    1    3 ar   
     3    1   26 1    
     4    2    5 ar   
     5    2   27 1    
     6    3    8 ar   
     7    3   28 1    
     8    4    6 ar   
     9    4    9 ar   
    10    4   29 1    
    11    5   11 ar   
    12    5   30 1    
    13    6   12 ar   
    14    6   31 1    
    15    7    9 ar   
    16    7   13 ar   
    17    7   32 1    
    18    8   10 ar   
    19    8   11 ar   
    20    9   15 1    
    21   10   14 ar   
    22   10   16 1    
    23   11   21 ar   
    24   12   13 ar   
    25   12   24 1    
    26   13   25 1    
    27   14   17 1    
    28   14   21 ar   
    29   15   22 am   BACKBONE|DICT|INTERRES
    30   15   23 2    
    31   16   22 1    
    32   16   33 1    
    33   16   34 1    
    34   17   18 1    
    35   17   35 1    
    36   17   36 1    
    37   18   22 1    
    38   18   37 1    
    39   18   38 1    
    40   19   24 1    
    41   19   39 1    
    42   19   40 1    
    43   19   41 1    
    44   20   25 1    
    45   20   42 1    
    46   20   43 1    
    47   20   44 1    
    48   21   45 1    
@<TRIPOS>SUBSTRUCTURE
     1 UNK         1 GROUP             0       ****    0 ROOT    
@<TRIPOS>MOLECULE
ZINC08549399_128
51   53    1
SMALL
USER_CHARGES


@<TRIPOS>ATOM
      1 C1         -7.6541   -5.5557   38.4862 C.ar      1 UNK        -0.1150 
      2 C2         -6.7900   -3.5622   39.5888 C.ar      1 UNK        -0.1150 
      3 C3         -4.4464  -10.5100   39.9888 C.ar      1 UNK        -0.6890 
      4 C4         -6.9827   -4.9593   39.5776 C.ar      1 UNK        -0.1150 
      5 C5         -8.1464   -4.7680   37.4181 C.ar      1 UNK         0.0850 
      6 C6         -7.2707   -2.7551   38.5305 C.ar      1 UNK         0.0850 
      7 C7         -7.9415   -3.3675   37.4489 C.ar      1 UNK         0.0850 
      8 C8         -4.8617  -10.3001   41.3107 C.ar      1 UNK         0.5490 
      9 C9         -4.9767   -9.6536   39.0144 C.ar      1 UNK         0.8640 
     10 C10        -6.1356   -8.5568   40.6327 C.ar      1 UNK         0.9945 
     11 C11        -6.4372   -5.7686   40.7027 C.2       1 UNK         0.5974 
     12 C12        -5.0297   -8.7219   36.7538 C.3       1 UNK         0.0900 
     13 C13        -4.8131  -11.1288   37.1062 C.3       1 UNK         0.0900 
     14 C14        -4.3885   -8.9056   35.3679 C.3       1 UNK         0.1400 
     15 C15        -4.1786  -11.2306   35.7069 C.3       1 UNK         0.1400 
     16 C16        -4.3509  -11.1602   42.4456 C.3       1 UNK        -0.0650 
     17 C17        -9.0867   -6.6892   36.3086 C.3       1 UNK         0.1100 
     18 C18        -6.4475   -0.7396   39.5543 C.3       1 UNK         0.1100 
     19 C19        -7.6793   -2.6847   35.2254 C.3       1 UNK         0.1100 
     20 N20        -5.7223   -9.3252   41.6323 N.ar      1 UNK        -0.8390 
     21 N21        -5.8379   -8.6809   39.3460 N.ar      1 UNK        -0.8390 
     22 N22        -4.6154   -9.7921   37.6631 N.pl3     1 UNK        -0.6200 
     23 O23        -5.4939   -5.4096   41.4084 O.2       1 UNK        -0.4300 
     24 O24        -4.6950  -10.2036   34.8654 O.3       1 UNK        -0.4000 
     25 O25        -8.8272   -5.2936   36.3382 O.3       1 UNK        -0.2850 
     26 O26        -7.1121   -1.3852   38.4788 O.3       1 UNK        -0.2850 
     27 O27        -8.4094   -2.5680   36.4360 O.3       1 UNK        -0.2850 
     28 S28        -7.3243   -7.3079   41.0281 S.3       1 UNK        -0.2049 
     29 H29        -7.7743   -6.6271   38.4663 H         1 UNK         0.1150 
     30 H30        -6.2649   -3.1265   40.4257 H         1 UNK         0.1150 
     31 H31        -3.7317  -11.2800   39.7430 H         1 UNK         0.1970 
     32 H32        -4.7449   -7.7509   37.1626 H         1 UNK         0.0600 
     33 H33        -6.1168   -8.7247   36.6639 H         1 UNK         0.0600 
     34 H34        -5.8833  -11.3317   37.0445 H         1 UNK         0.0600 
     35 H35        -4.3830  -11.8970   37.7478 H         1 UNK         0.0600 
     36 H36        -4.7725   -8.1562   34.6754 H         1 UNK         0.0300 
     37 H37        -3.3074   -8.7666   35.4186 H         1 UNK         0.0300 
     38 H38        -3.0917  -11.1546   35.7669 H         1 UNK         0.0300 
     39 H39        -4.4041  -12.1996   35.2619 H         1 UNK         0.0300 
     40 H40        -3.3776  -10.8013   42.7798 H         1 UNK         0.0600 
     41 H41        -5.0354  -11.1334   43.2942 H         1 UNK         0.0600 
     42 H42        -4.2482  -12.1974   42.1268 H         1 UNK         0.0600 
     43 H43        -9.6511   -6.9299   35.4078 H         1 UNK         0.0300 
     44 H44        -9.6852   -7.0030   37.1651 H         1 UNK         0.0300 
     45 H45        -8.1616   -7.2662   36.2806 H         1 UNK         0.0300 
     46 H46        -6.4117    0.3325   39.3614 H         1 UNK         0.0300 
     47 H47        -5.4196   -1.0897   39.6563 H         1 UNK         0.0300 
     48 H48        -6.9768   -0.8875   40.4965 H         1 UNK         0.0300 
     49 H49        -7.9803   -1.8890   34.5445 H         1 UNK         0.0300 
     50 H50        -7.8661   -3.6348   34.7253 H         1 UNK         0.0300 
     51 H51        -6.6066   -2.5864   35.3988 H         1 UNK         0.0300 
@<TRIPOS>BOND
     1    1    4 ar   
     2    1    5 ar   
     3    1   29 1    
     4    2    4 ar   
     5    2    6 ar   
     6    2   30 1    
     7    3    8 ar   
     8    3    9 ar   
     9    3   31 1    
    10    4   11 1    
    11    5    7 ar   
    12    5   25 1    
    13    6    7 ar   
    14    6   26 1    
    15    7   27 1    
    16    8   16 1    
    17    8   20 ar   
    18    9   21 ar   
    19    9   22 1    
    20   10   20 ar   
    21   10   21 ar   
    22   10   28 1    
    23   11   23 2    
    24   11   28 1    
    25   12   14 1    
    26   12   22 1    
    27   12   32 1    
    28   12   33 1    
    29   13   15 1    
    30   13   22 1    
    31   13   34 1    
    32   13   35 1    
    33   14   24 1    
    34   14   36 1    
    35   14   37 1    
    36   15   24 1    
    37   15   38 1    
    38   15   39 1    
    39   16   40 1    
    40   16   41 1    
    41   16   42 1    
    42   17   25 1    
    43   17   43 1    
    44   17   44 1    
    45   17   45 1    
    46   18   26 1    
    47   18   46 1    
    48   18   47 1    
    49   18   48 1    
    50   19   27 1    
    51   19   49 1    
    52   19   50 1    
    53   19   51 1    
@<TRIPOS>SUBSTRUCTURE
     1 UNK         1 GROUP             0       ****    0 ROOT    
@<TRIPOS>MOLECULE
ZINC08555467_116
47   48    1
SMALL
USER_CHARGES


@<TRIPOS>ATOM
      1 C1        -12.0507  -23.2211   36.3543 C.ar      1 UNK        -0.1150 
      2 C2        -13.2308  -22.6957   35.7937 C.ar      1 UNK        -0.1150 
      3 C3        -11.8394  -23.1480   37.7446 C.ar      1 UNK        -0.1150 
      4 C4        -14.1988  -22.0964   36.6227 C.ar      1 UNK        -0.1150 
      5 C5        -12.8071  -22.5493   38.5747 C.ar      1 UNK        -0.1150 
      6 C6        -16.4912  -14.6752   39.6305 C.ar      1 UNK        -0.1150 
      7 C7        -17.7948  -15.5096   37.7587 C.ar      1 UNK        -0.1150 
      8 C8        -16.9526  -15.7582   38.8615 C.ar      1 UNK        -0.1150 
      9 C9        -13.9899  -22.0176   38.0167 C.ar      1 UNK        -0.1150 
     10 C10       -16.8243  -13.3482   39.3042 C.ar      1 UNK         0.0850 
     11 C11       -18.1667  -14.1871   37.4137 C.ar      1 UNK         0.0850 
     12 C12       -17.6953  -13.1004   38.2023 C.ar      1 UNK         0.0850 
     13 C13       -16.5681  -17.1561   39.2434 C.2       1 UNK         0.6150 
     14 C14       -15.0645  -19.8658   38.7815 C.2       1 UNK         0.1809 
     15 C15       -13.8508  -19.0945   39.2529 C.3       1 UNK        -0.1321 
     16 C16       -16.1556  -11.0530   39.6947 C.3       1 UNK         0.1100 
     17 C17       -19.4556  -14.9673   35.5253 C.3       1 UNK         0.1100 
     18 C18       -19.4660  -11.5595   37.8221 C.3       1 UNK         0.1100 
     19 C19       -15.0351  -21.3677   38.9103 C.3       1 UNK         0.0429 
     20 N20       -16.1282  -19.3255   38.2808 N.2       1 UNK        -0.2833 
     21 N21       -16.2857  -17.9714   38.2094 N.am      1 UNK        -0.2934 
     22 O22       -16.4497  -17.4790   40.4248 O.2       1 UNK        -0.5000 
     23 O23       -16.2728  -12.3960   40.1388 O.3       1 UNK        -0.2850 
     24 O24       -18.9625  -13.9002   36.3218 O.3       1 UNK        -0.2850 
     25 O25       -18.0688  -11.8092   37.9030 O.3       1 UNK        -0.2850 
     26 H26       -11.3083  -23.6807   35.7181 H         1 UNK         0.1150 
     27 H27       -13.3937  -22.7522   34.7271 H         1 UNK         0.1150 
     28 H28       -10.9347  -23.5525   38.1749 H         1 UNK         0.1150 
     29 H29       -15.1017  -21.6936   36.1860 H         1 UNK         0.1150 
     30 H30       -12.6348  -22.4982   39.6403 H         1 UNK         0.1150 
     31 H31       -15.8543  -14.8618   40.4842 H         1 UNK         0.1150 
     32 H32       -18.1599  -16.3515   37.1922 H         1 UNK         0.1150 
     33 H33       -12.9415  -19.5122   38.8212 H         1 UNK         0.0600 
     34 H34       -13.8675  -18.0404   38.9818 H         1 UNK         0.0600 
     35 H35       -13.7626  -19.1557   40.3374 H         1 UNK         0.0600 
     36 H36       -17.1071  -10.5260   39.7694 H         1 UNK         0.0300 
     37 H37       -15.7793  -10.9927   38.6724 H         1 UNK         0.0300 
     38 H38       -15.4458  -10.5284   40.3338 H         1 UNK         0.0300 
     39 H39       -20.0651  -14.5591   34.7190 H         1 UNK         0.0300 
     40 H40       -20.0879  -15.6403   36.1060 H         1 UNK         0.0300 
     41 H41       -18.6432  -15.5331   35.0678 H         1 UNK         0.0300 
     42 H42       -20.0530  -12.2612   38.4173 H         1 UNK         0.0300 
     43 H43       -19.8103  -11.5977   36.7886 H         1 UNK         0.0300 
     44 H44       -19.6723  -10.5574   38.1973 H         1 UNK         0.0300 
     45 H45       -16.0084  -21.7927   38.6595 H         1 UNK         0.0600 
     46 H46       -14.8544  -21.6384   39.9509 H         1 UNK         0.0600 
     47 H47       -16.4435  -17.6132   37.2811 H         1 UNK         0.3000 
@<TRIPOS>BOND
     1    1    2 ar   
     2    1    3 ar   
     3    1   26 1    
     4    2    4 ar   
     5    2   27 1    
     6    3    5 ar   
     7    3   28 1    
     8    4    9 ar   
     9    4   29 1    
    10    5    9 ar   
    11    5   30 1    
    12    6    8 ar   
    13    6   10 ar   
    14    6   31 1    
    15    7    8 ar   
    16    7   11 ar   
    17    7   32 1    
    18    8   13 1    
    19    9   19 1    
    20   10   12 ar   
    21   10   23 1    
    22   11   12 ar   
    23   11   24 1    
    24   12   25 1    
    25   13   21 am   BACKBONE|DICT|INTERRES
    26   13   22 2    
    27   14   15 1    
    28   14   19 1    
    29   14   20 2    
    30   15   33 1    
    31   15   34 1    
    32   15   35 1    
    33   16   23 1    
    34   16   36 1    
    35   16   37 1    
    36   16   38 1    
    37   17   24 1    
    38   17   39 1    
    39   17   40 1    
    40   17   41 1    
    41   18   25 1    
    42   18   42 1    
    43   18   43 1    
    44   18   44 1    
    45   19   45 1    
    46   19   46 1    
    47   20   21 1    
    48   21   47 1    
@<TRIPOS>SUBSTRUCTURE
     1 UNK         1 GROUP             0       ****    0 ROOT    
@<TRIPOS>MOLECULE
ZINC08706416_9
54   57    1
SMALL
USER_CHARGES


@<TRIPOS>ATOM
      1 C1         -4.0063  -11.9455   33.7237 C.ar      1 UNK        -0.1490 
      2 C2         -5.3301  -12.1649   33.2854 C.ar      1 UNK        -0.1817 
      3 C3         -3.7543  -11.4858   35.0347 C.ar      1 UNK        -0.3696 
      4 C4         -6.4136  -11.9254   34.1550 C.ar      1 UNK        -0.3290 
      5 C5         -8.0801   -5.3563   39.4394 C.ar      1 UNK        -0.1150 
      6 C6         -9.0496   -7.4668   38.7223 C.ar      1 UNK        -0.1150 
      7 C7         -8.2241   -6.7457   39.6060 C.ar      1 UNK        -0.1150 
      8 C8         -4.8212  -11.2380   35.9218 C.ar      1 UNK         0.4982 
      9 C9         -6.1498  -11.4663   35.4573 C.ar      1 UNK         0.2299 
     10 C10        -8.7049   -4.6769   38.3640 C.ar      1 UNK         0.0850 
     11 C11        -9.6771   -6.8186   37.6338 C.ar      1 UNK         0.0850 
     12 C12        -9.4869   -5.4299   37.4386 C.ar      1 UNK         0.0850 
     13 C13        -6.1155  -10.7509   37.5311 C.ar      1 UNK         0.3638 
     14 C14        -7.5592   -7.4270   40.7674 C.2       1 UNK         0.6150 
     15 C15        -6.6457  -10.7877   41.3784 C.3       1 UNK        -0.1200 
     16 C16        -6.2110  -11.2898   39.9887 C.3       1 UNK        -0.1200 
     17 C17        -6.2116   -9.3269   41.6023 C.3       1 UNK        -0.0500 
     18 C18        -6.2129   -8.8775   39.2066 C.3       1 UNK        -0.0500 
     19 C19        -6.6392  -10.3210   38.8680 C.3       1 UNK         0.0550 
     20 C20        -7.8726   -2.5528   39.1609 C.3       1 UNK         0.1100 
     21 C21       -10.7403   -8.8575   36.9141 C.3       1 UNK         0.1100 
     22 C22        -9.5589   -3.7798   35.6786 C.3       1 UNK         0.1100 
     23 N23        -4.8184  -10.7906   37.2318 N.2       1 UNK        -0.6787 
     24 N24        -6.9423  -11.1380   36.5429 N.pl3     1 UNK        -0.6257 
     25 N25        -6.7493   -8.4881   40.5217 N.am      1 UNK        -0.1400 
     26 O26        -7.7811   -7.0023   41.9001 O.2       1 UNK        -0.5000 
     27 O27        -8.5981   -3.3094   38.2023 O.3       1 UNK        -0.2850 
     28 O28       -10.4760   -7.4772   36.7206 O.3       1 UNK        -0.2850 
     29 O29       -10.1349   -4.8940   36.3425 O.3       1 UNK        -0.2850 
     30 H30        -3.1794  -12.1309   33.0520 H         1 UNK         0.1514 
     31 H31        -5.5113  -12.5177   32.2786 H         1 UNK         0.1607 
     32 H32        -2.7452  -11.3173   35.3761 H         1 UNK         0.2091 
     33 H33        -7.4260  -12.0916   33.8206 H         1 UNK         0.1984 
     34 H34        -7.4791   -4.8308   40.1661 H         1 UNK         0.1150 
     35 H35        -9.1887   -8.5206   38.9011 H         1 UNK         0.1150 
     36 H36        -7.7295  -10.8651   41.4760 H         1 UNK         0.0600 
     37 H37        -6.2211  -11.4266   42.1539 H         1 UNK         0.0600 
     38 H38        -5.1244  -11.3910   39.9750 H         1 UNK         0.0600 
     39 H39        -6.6112  -12.2865   39.8007 H         1 UNK         0.0600 
     40 H40        -6.5420   -9.0010   42.5904 H         1 UNK         0.0600 
     41 H41        -5.1234   -9.2497   41.6116 H         1 UNK         0.0600 
     42 H42        -5.1238   -8.8171   39.2434 H         1 UNK         0.0600 
     43 H43        -6.5004   -8.2035   38.4003 H         1 UNK         0.0600 
     44 H44        -7.7279  -10.3434   38.8164 H         1 UNK         0.0600 
     45 H45        -7.9145   -1.4982   38.8892 H         1 UNK         0.0300 
     46 H46        -6.8216   -2.8433   39.1866 H         1 UNK         0.0300 
     47 H47        -8.3029   -2.6516   40.1585 H         1 UNK         0.0300 
     48 H48       -11.4062   -9.2080   36.1257 H         1 UNK         0.0300 
     49 H49       -11.2359   -9.0390   37.8689 H         1 UNK         0.0300 
     50 H50        -9.8254   -9.4486   36.8600 H         1 UNK         0.0300 
     51 H51        -9.9112   -3.7602   34.6476 H         1 UNK         0.0300 
     52 H52        -8.4697   -3.8332   35.6510 H         1 UNK         0.0300 
     53 H53        -9.8671   -2.8429   36.1428 H         1 UNK         0.0300 
     54 H54        -7.9449  -11.1773   36.6059 H         1 UNK         0.4072 
@<TRIPOS>BOND
     1    1    2 ar   
     2    1    3 ar   
     3    1   30 1    
     4    2    4 ar   
     5    2   31 1    
     6    3    8 ar   
     7    3   32 1    
     8    4    9 ar   
     9    4   33 1    
    10    5    7 ar   
    11    5   10 ar   
    12    5   34 1    
    13    6    7 ar   
    14    6   11 ar   
    15    6   35 1    
    16    7   14 1    
    17    8    9 ar   
    18    8   23 ar   
    19    9   24 ar   
    20   10   12 ar   
    21   10   27 1    
    22   11   12 ar   
    23   11   28 1    
    24   12   29 1    
    25   13   19 1    
    26   13   23 ar   
    27   13   24 ar   
    28   14   25 am   BACKBONE|DICT|INTERRES
    29   14   26 2    
    30   15   16 1    
    31   15   17 1    
    32   15   36 1    
    33   15   37 1    
    34   16   19 1    
    35   16   38 1    
    36   16   39 1    
    37   17   25 1    
    38   17   40 1    
    39   17   41 1    
    40   18   19 1    
    41   18   25 1    
    42   18   42 1    
    43   18   43 1    
    44   19   44 1    
    45   20   27 1    
    46   20   45 1    
    47   20   46 1    
    48   20   47 1    
    49   21   28 1    
    50   21   48 1    
    51   21   49 1    
    52   21   50 1    
    53   22   29 1    
    54   22   51 1    
    55   22   52 1    
    56   22   53 1    
    57   24   54 1    
@<TRIPOS>SUBSTRUCTURE
     1 UNK         1 GROUP             0       ****    0 ROOT    
@<TRIPOS>MOLECULE
ZINC08706417_55
54   57    1
SMALL
USER_CHARGES


@<TRIPOS>ATOM
      1 C1         -4.5247  -11.9878   33.5783 C.ar      1 UNK        -0.1490 
      2 C2         -3.6865  -10.8981   33.2583 C.ar      1 UNK        -0.1817 
      3 C3         -5.1584  -12.0565   34.8383 C.ar      1 UNK        -0.3696 
      4 C4         -3.4745   -9.8675   34.1966 C.ar      1 UNK        -0.3290 
      5 C5         -7.1046   -4.8115   39.2400 C.ar      1 UNK        -0.1150 
      6 C6         -8.8229   -6.4550   38.7337 C.ar      1 UNK        -0.1150 
      7 C7         -7.6986   -6.0631   39.4867 C.ar      1 UNK        -0.1150 
      8 C8         -4.9619  -11.0379   35.7927 C.ar      1 UNK         0.4982 
      9 C9         -4.1105   -9.9473   35.4478 C.ar      1 UNK         0.2299 
     10 C10        -7.5807   -3.9623   38.2107 C.ar      1 UNK         0.0850 
     11 C11        -9.3100   -5.6361   37.6888 C.ar      1 UNK         0.0850 
     12 C12        -8.6767   -4.4012   37.4114 C.ar      1 UNK         0.0850 
     13 C13        -4.9312   -9.7413   37.4719 C.ar      1 UNK         0.3638 
     14 C14        -7.1789   -6.9203   40.6059 C.2       1 UNK         0.6150 
     15 C15        -5.0087   -9.4649   41.3447 C.3       1 UNK        -0.1200 
     16 C16        -4.6460  -10.0271   39.9578 C.3       1 UNK        -0.1200 
     17 C17        -6.5133   -9.1511   41.4307 C.3       1 UNK        -0.0500 
     18 C18        -6.6807   -8.8199   39.0240 C.3       1 UNK        -0.0500 
     19 C19        -5.1845   -9.1366   38.8196 C.3       1 UNK         0.0550 
     20 C20        -6.0391   -2.2207   38.8635 C.3       1 UNK         0.1100 
     21 C21       -11.0370   -7.2206   37.1297 C.3       1 UNK         0.1100 
     22 C22        -8.3623   -2.8714   35.5749 C.3       1 UNK         0.1100 
     23 N23        -5.4709  -10.8917   37.0721 N.2       1 UNK        -0.6787 
     24 N24        -4.1289   -9.1427   36.5732 N.pl3     1 UNK        -0.6257 
     25 N25        -6.8829   -8.2208   40.3544 N.am      1 UNK        -0.1400 
     26 O26        -7.0304   -6.4070   41.7140 O.2       1 UNK        -0.5000 
     27 O27        -7.0294   -2.7179   37.9747 O.3       1 UNK        -0.2850 
     28 O28       -10.3856   -5.9813   36.8953 O.3       1 UNK        -0.2850 
     29 O29        -9.2206   -3.6751   36.3700 O.3       1 UNK        -0.2850 
     30 H30        -4.6834  -12.7750   32.8538 H         1 UNK         0.1514 
     31 H31        -3.2069  -10.8557   32.2893 H         1 UNK         0.1607 
     32 H32        -5.8004  -12.8861   35.0885 H         1 UNK         0.2091 
     33 H33        -2.8349   -9.0333   33.9534 H         1 UNK         0.1984 
     34 H34        -6.2778   -4.5226   39.8712 H         1 UNK         0.1150 
     35 H35        -9.2924   -7.3975   38.9705 H         1 UNK         0.1150 
     36 H36        -4.7288  -10.1778   42.1213 H         1 UNK         0.0600 
     37 H37        -4.4349   -8.5573   41.5388 H         1 UNK         0.0600 
     38 H38        -3.5662  -10.1471   39.8651 H         1 UNK         0.0600 
     39 H39        -5.0723  -11.0271   39.8598 H         1 UNK         0.0600 
     40 H40        -7.0955  -10.0680   41.3274 H         1 UNK         0.0600 
     41 H41        -6.7569   -8.7596   42.4204 H         1 UNK         0.0600 
     42 H42        -7.0054   -8.1873   38.2006 H         1 UNK         0.0600 
     43 H43        -7.2725   -9.7333   38.9473 H         1 UNK         0.0600 
     44 H44        -4.6428   -8.1903   38.8626 H         1 UNK         0.0600 
     45 H45        -5.7679   -1.2078   38.5666 H         1 UNK         0.0300 
     46 H46        -5.1324   -2.8259   38.8297 H         1 UNK         0.0300 
     47 H47        -6.4085   -2.1742   39.8891 H         1 UNK         0.0300 
     48 H48       -11.8527   -7.3369   36.4162 H         1 UNK         0.0300 
     49 H49       -11.4680   -7.2622   38.1308 H         1 UNK         0.0300 
     50 H50       -10.3565   -8.0618   36.9914 H         1 UNK         0.0300 
     51 H51        -8.8058   -2.7483   34.5873 H         1 UNK         0.0300 
     52 H52        -7.3804   -3.3272   35.4374 H         1 UNK         0.0300 
     53 H53        -8.2467   -1.8757   36.0035 H         1 UNK         0.0300 
     54 H54        -3.6455   -8.2721   36.7179 H         1 UNK         0.4072 
@<TRIPOS>BOND
     1    1    2 ar   
     2    1    3 ar   
     3    1   30 1    
     4    2    4 ar   
     5    2   31 1    
     6    3    8 ar   
     7    3   32 1    
     8    4    9 ar   
     9    4   33 1    
    10    5    7 ar   
    11    5   10 ar   
    12    5   34 1    
    13    6    7 ar   
    14    6   11 ar   
    15    6   35 1    
    16    7   14 1    
    17    8    9 ar   
    18    8   23 ar   
    19    9   24 ar   
    20   10   12 ar   
    21   10   27 1    
    22   11   12 ar   
    23   11   28 1    
    24   12   29 1    
    25   13   19 1    
    26   13   23 ar   
    27   13   24 ar   
    28   14   25 am   BACKBONE|DICT|INTERRES
    29   14   26 2    
    30   15   16 1    
    31   15   17 1    
    32   15   36 1    
    33   15   37 1    
    34   16   19 1    
    35   16   38 1    
    36   16   39 1    
    37   17   25 1    
    38   17   40 1    
    39   17   41 1    
    40   18   19 1    
    41   18   25 1    
    42   18   42 1    
    43   18   43 1    
    44   19   44 1    
    45   20   27 1    
    46   20   45 1    
    47   20   46 1    
    48   20   47 1    
    49   21   28 1    
    50   21   48 1    
    51   21   49 1    
    52   21   50 1    
    53   22   29 1    
    54   22   51 1    
    55   22   52 1    
    56   22   53 1    
    57   24   54 1    
@<TRIPOS>SUBSTRUCTURE
     1 UNK         1 GROUP             0       ****    0 ROOT    
@<TRIPOS>MOLECULE
ZINC08734925_75
52   55    1
SMALL
USER_CHARGES


@<TRIPOS>ATOM
      1 C1         -4.2049  -11.1709   35.3365 C.ar      1 UNK        -0.1150 
      2 C2         -4.1419  -11.8535   36.5680 C.ar      1 UNK        -0.1150 
      3 C3         -4.6465   -9.8336   35.2888 C.ar      1 UNK        -0.1150 
      4 C4         -2.7784   -7.2553   43.1943 C.2       1 UNK        -0.1540 
      5 C5         -4.5176  -11.2016   37.7596 C.ar      1 UNK        -0.1150 
      6 C6         -5.0253   -9.1721   36.4736 C.ar      1 UNK        -0.1150 
      7 C7         -3.6969   -7.0650   42.1252 C.2       1 UNK        -0.1540 
      8 C8         -8.0345   -5.9904   38.4972 C.ar      1 UNK        -0.1150 
      9 C9         -7.0007   -4.1729   39.7441 C.ar      1 UNK        -0.1150 
     10 C10        -3.0712   -8.4776   43.7278 C.2       1 UNK        -0.0190 
     11 C11        -4.9568   -9.8595   37.7063 C.ar      1 UNK         0.0631 
     12 C12        -7.2621   -5.5494   39.5938 C.ar      1 UNK        -0.1150 
     13 C13        -8.4975   -5.0770   37.5200 C.ar      1 UNK         0.0850 
     14 C14        -7.4575   -3.2388   38.7841 C.ar      1 UNK         0.0850 
     15 C15        -8.1900   -3.7032   37.6688 C.ar      1 UNK         0.0850 
     16 C16        -4.4887   -8.1815   42.0873 C.2       1 UNK         0.0080 
     17 C17        -5.3522   -9.1574   38.9471 C.2       1 UNK         0.1657 
     18 C18        -6.7759   -6.5077   40.6493 C.2       1 UNK         0.6150 
     19 C19        -5.2057   -9.7870   40.2894 C.3       1 UNK        -0.0721 
     20 C20        -5.6236   -8.6401   41.2137 C.3       1 UNK         0.2550 
     21 C21        -9.5728   -6.8237   36.2607 C.3       1 UNK         0.1100 
     22 C22        -6.5302   -1.3831   39.9992 C.3       1 UNK         0.1100 
     23 C23        -7.9084   -2.8200   35.5235 C.3       1 UNK         0.1100 
     24 N24        -5.8407   -7.9741   38.9819 N.2       1 UNK        -0.2833 
     25 N25        -6.1048   -7.6235   40.2699 N.am      1 UNK        -0.1934 
     26 O26        -6.9685   -6.2317   41.8323 O.2       1 UNK        -0.5000 
     27 O27        -4.1057   -9.0571   43.0601 O.3       1 UNK        -0.1900 
     28 O28        -9.2488   -5.4514   36.4240 O.3       1 UNK        -0.2850 
     29 O29        -7.2192   -1.8819   38.8629 O.3       1 UNK        -0.2850 
     30 O30        -8.6277   -2.7875   36.7452 O.3       1 UNK        -0.2850 
     31 H31        -3.9135  -11.6736   34.4251 H         1 UNK         0.1150 
     32 H32        -3.8029  -12.8792   36.5978 H         1 UNK         0.1150 
     33 H33        -4.6930   -9.3128   34.3432 H         1 UNK         0.1150 
     34 H34        -2.0030   -6.5826   43.5313 H         1 UNK         0.1260 
     35 H35        -4.4609  -11.7442   38.6913 H         1 UNK         0.1150 
     36 H36        -5.3592   -8.1449   36.4246 H         1 UNK         0.1150 
     37 H37        -3.7754   -6.2140   41.4642 H         1 UNK         0.1260 
     38 H38        -8.2605   -7.0427   38.4262 H         1 UNK         0.1150 
     39 H39        -6.4390   -3.8590   40.6109 H         1 UNK         0.1150 
     40 H40        -2.6634   -9.0581   44.5430 H         1 UNK         0.1420 
     41 H41        -5.8668  -10.6477   40.3909 H         1 UNK         0.0600 
     42 H42        -4.1786  -10.1067   40.4703 H         1 UNK         0.0600 
     43 H43        -6.4548   -8.9577   41.8460 H         1 UNK         0.0600 
     44 H44       -10.1593   -6.9478   35.3504 H         1 UNK         0.0300 
     45 H45       -10.1746   -7.1922   37.0924 H         1 UNK         0.0300 
     46 H46        -8.6760   -7.4368   36.1611 H         1 UNK         0.0300 
     47 H47        -6.4510   -0.2988   39.9233 H         1 UNK         0.0300 
     48 H48        -5.5175   -1.7838   40.0587 H         1 UNK         0.0300 
     49 H49        -7.0649   -1.6101   40.9226 H         1 UNK         0.0300 
     50 H50        -8.2313   -1.9930   34.8916 H         1 UNK         0.0300 
     51 H51        -8.0799   -3.7440   34.9715 H         1 UNK         0.0300 
     52 H52        -6.8366   -2.7102   35.6953 H         1 UNK         0.0300 
@<TRIPOS>BOND
     1    1    2 ar   
     2    1    3 ar   
     3    1   31 1    
     4    2    5 ar   
     5    2   32 1    
     6    3    6 ar   
     7    3   33 1    
     8    4    7 1    
     9    4   10 2    
    10    4   34 1    
    11    5   11 ar   
    12    5   35 1    
    13    6   11 ar   
    14    6   36 1    
    15    7   16 2    
    16    7   37 1    
    17    8   12 ar   
    18    8   13 ar   
    19    8   38 1    
    20    9   12 ar   
    21    9   14 ar   
    22    9   39 1    
    23   10   27 1    
    24   10   40 1    
    25   11   17 1    
    26   12   18 1    
    27   13   15 ar   
    28   13   28 1    
    29   14   15 ar   
    30   14   29 1    
    31   15   30 1    
    32   16   20 1    
    33   16   27 1    
    34   17   19 1    
    35   17   24 2    
    36   18   25 am   BACKBONE|DICT|INTERRES
    37   18   26 2    
    38   19   20 1    
    39   19   41 1    
    40   19   42 1    
    41   20   25 1    
    42   20   43 1    
    43   21   28 1    
    44   21   44 1    
    45   21   45 1    
    46   21   46 1    
    47   22   29 1    
    48   22   47 1    
    49   22   48 1    
    50   22   49 1    
    51   23   30 1    
    52   23   50 1    
    53   23   51 1    
    54   23   52 1    
    55   24   25 1    
@<TRIPOS>SUBSTRUCTURE
     1 UNK         1 GROUP             0       ****    0 ROOT    
@<TRIPOS>MOLECULE
ZINC08734926_60
52   55    1
SMALL
USER_CHARGES


@<TRIPOS>ATOM
      1 C1         -3.7355  -11.0022   35.4962 C.ar      1 UNK        -0.1150 
      2 C2         -3.6040  -11.6005   36.7655 C.ar      1 UNK        -0.1150 
      3 C3         -4.3754   -9.7536   35.3643 C.ar      1 UNK        -0.1150 
      4 C4         -8.9409   -9.8100   42.8814 C.2       1 UNK        -0.1540 
      5 C5         -4.1109  -10.9534   37.9102 C.ar      1 UNK        -0.1150 
      6 C6         -4.8872   -9.0981   36.5015 C.ar      1 UNK        -0.1150 
      7 C7         -8.3978   -8.9739   41.8669 C.2       1 UNK        -0.1540 
      8 C8         -8.0111   -5.7835   38.3947 C.ar      1 UNK        -0.1150 
      9 C9         -6.7773   -3.9897   39.4713 C.ar      1 UNK        -0.1150 
     10 C10        -7.8723  -10.3938   43.4994 C.2       1 UNK        -0.0190 
     11 C11        -4.7520   -9.7014   37.7724 C.ar      1 UNK         0.0631 
     12 C12        -7.1551   -5.3442   39.4256 C.ar      1 UNK        -0.1150 
     13 C13        -8.4503   -4.9032   37.3753 C.ar      1 UNK         0.0850 
     14 C14        -7.2024   -3.0851   38.4705 C.ar      1 UNK         0.0850 
     15 C15        -8.0192   -3.5447   37.4103 C.ar      1 UNK         0.0850 
     16 C16        -7.0367   -9.1029   41.9425 C.2       1 UNK         0.0080 
     17 C17        -5.2909   -9.0072   38.9633 C.2       1 UNK         0.1657 
     18 C18        -6.7059   -6.2762   40.5207 C.2       1 UNK         0.6150 
     19 C19        -5.1537   -9.5740   40.3341 C.3       1 UNK        -0.0721 
     20 C20        -5.8795   -8.5235   41.1789 C.3       1 UNK         0.2550 
     21 C21        -9.6955   -6.6795   36.3112 C.3       1 UNK         0.1100 
     22 C22        -6.0714   -1.2430   39.5301 C.3       1 UNK         0.1100 
     23 C23        -8.5436   -2.9863   35.1245 C.3       1 UNK         0.1100 
     24 N24        -5.9033   -7.8829   38.9278 N.2       1 UNK        -0.2833 
     25 N25        -6.2691   -7.5148   40.1863 N.am      1 UNK        -0.1934 
     26 O26        -6.6904   -5.8710   41.6822 O.2       1 UNK        -0.5000 
     27 O27        -6.7061   -9.9772   42.9354 O.3       1 UNK        -0.1900 
     28 O28        -9.3035   -5.3156   36.3699 O.3       1 UNK        -0.2850 
     29 O29        -6.8498   -1.7502   38.4571 O.3       1 UNK        -0.2850 
     30 O30        -8.3746   -2.5904   36.4769 O.3       1 UNK        -0.2850 
     31 H31        -3.3443  -11.5018   34.6212 H         1 UNK         0.1150 
     32 H32        -3.1121  -12.5580   36.8604 H         1 UNK         0.1150 
     33 H33        -4.4734   -9.2970   34.3899 H         1 UNK         0.1150 
     34 H34        -9.9812   -9.9628   43.1302 H         1 UNK         0.1260 
     35 H35        -3.9974  -11.4314   38.8717 H         1 UNK         0.1150 
     36 H36        -5.3750   -8.1400   36.3870 H         1 UNK         0.1150 
     37 H37        -8.9357   -8.3480   41.1695 H         1 UNK         0.1260 
     38 H38        -8.3219   -6.8162   38.4126 H         1 UNK         0.1150 
     39 H39        -6.1520   -3.6685   40.2905 H         1 UNK         0.1150 
     40 H40        -7.7674  -11.0930   44.3168 H         1 UNK         0.1420 
     41 H41        -5.6278  -10.5540   40.4024 H         1 UNK         0.0600 
     42 H42        -4.1067   -9.6670   40.6225 H         1 UNK         0.0600 
     43 H43        -5.1770   -8.0731   41.8828 H         1 UNK         0.0600 
     44 H44       -10.3345   -6.8310   35.4415 H         1 UNK         0.0300 
     45 H45       -10.2684   -6.9688   37.1931 H         1 UNK         0.0300 
     46 H46        -8.8333   -7.3394   36.2040 H         1 UNK         0.0300 
     47 H47        -5.9054   -0.1765   39.3794 H         1 UNK         0.0300 
     48 H48        -5.0939   -1.7248   39.5764 H         1 UNK         0.0300 
     49 H49        -6.5823   -1.3649   40.4861 H         1 UNK         0.0300 
     50 H50        -8.3655   -2.1276   34.4776 H         1 UNK         0.0300 
     51 H51        -9.5633   -3.3240   34.9390 H         1 UNK         0.0300 
     52 H52        -7.8412   -3.7682   34.8318 H         1 UNK         0.0300 
@<TRIPOS>BOND
     1    1    2 ar   
     2    1    3 ar   
     3    1   31 1    
     4    2    5 ar   
     5    2   32 1    
     6    3    6 ar   
     7    3   33 1    
     8    4    7 1    
     9    4   10 2    
    10    4   34 1    
    11    5   11 ar   
    12    5   35 1    
    13    6   11 ar   
    14    6   36 1    
    15    7   16 2    
    16    7   37 1    
    17    8   12 ar   
    18    8   13 ar   
    19    8   38 1    
    20    9   12 ar   
    21    9   14 ar   
    22    9   39 1    
    23   10   27 1    
    24   10   40 1    
    25   11   17 1    
    26   12   18 1    
    27   13   15 ar   
    28   13   28 1    
    29   14   15 ar   
    30   14   29 1    
    31   15   30 1    
    32   16   20 1    
    33   16   27 1    
    34   17   19 1    
    35   17   24 2    
    36   18   25 am   BACKBONE|DICT|INTERRES
    37   18   26 2    
    38   19   20 1    
    39   19   41 1    
    40   19   42 1    
    41   20   25 1    
    42   20   43 1    
    43   21   28 1    
    44   21   44 1    
    45   21   45 1    
    46   21   46 1    
    47   22   29 1    
    48   22   47 1    
    49   22   48 1    
    50   22   49 1    
    51   23   30 1    
    52   23   50 1    
    53   23   51 1    
    54   23   52 1    
    55   24   25 1    
@<TRIPOS>SUBSTRUCTURE
     1 UNK         1 GROUP             0       ****    0 ROOT    
@<TRIPOS>MOLECULE
ZINC08778392_261
44   47    1
SMALL
USER_CHARGES


@<TRIPOS>ATOM
      1 C1         -3.5527  -11.3917   36.6625 C.ar      1 UNK        -0.1150 
      2 C2         -3.8565  -10.7946   35.4256 C.ar      1 UNK        -0.1150 
      3 C3         -4.1332  -10.8943   37.8453 C.ar      1 UNK        -0.1150 
      4 C4         -4.7430   -9.7031   35.3762 C.ar      1 UNK        -0.1150 
      5 C5         -5.8408   -9.8748   40.2620 C.2       1 UNK        -0.1540 
      6 C6         -6.4003   -8.8635   41.0923 C.2       1 UNK        -0.1540 
      7 C7         -5.0221   -9.7950   37.8088 C.ar      1 UNK        -0.4134 
      8 C8         -5.3242   -9.2056   36.5579 C.ar      1 UNK         0.2200 
      9 C9         -5.5996   -9.2899   39.0497 C.2       1 UNK         0.5364 
     10 C10        -6.4788   -7.7321   40.3273 C.2       1 UNK         0.0453 
     11 C11        -6.9211   -6.3666   40.6856 C.2       1 UNK         0.5777 
     12 C12        -8.0594   -3.0405   36.5802 C.2       1 UNK         0.5000 
     13 C13        -9.1502   -2.7429   34.2501 C.3       1 UNK        -0.1200 
     14 C14        -7.9238   -3.6005   34.0760 C.3       1 UNK        -0.1200 
     15 C15        -8.0809   -6.0372   38.4646 C.3       1 UNK        -0.0500 
     16 C16        -7.6918   -4.1393   39.9274 C.3       1 UNK        -0.0500 
     17 C17        -7.3172   -5.3323   37.3290 C.3       1 UNK        -0.0500 
     18 C18        -6.9697   -3.4029   38.7767 C.3       1 UNK        -0.0500 
     19 C19        -8.7007   -3.6593   35.3752 C.3       1 UNK        -0.0600 
     20 N20        -7.5227   -5.5896   39.7504 N.am      1 UNK        -0.1400 
     21 N21        -7.4892   -3.8773   37.4825 N.am      1 UNK        -0.1400 
     22 O22        -6.7133   -5.9740   41.8330 O.2       1 UNK        -0.5000 
     23 O23        -8.0768   -1.8206   36.7429 O.2       1 UNK        -0.5000 
     24 O24        -5.9599   -7.9786   39.0911 O.3       1 UNK        -0.1900 
     25 F25        -6.1889   -8.1669   36.4717 F         1 UNK        -0.2200 
     26 H26        -2.8711  -12.2295   36.7044 H         1 UNK         0.1150 
     27 H27        -3.4124  -11.1728   34.5169 H         1 UNK         0.1150 
     28 H28        -3.8806  -11.3616   38.7865 H         1 UNK         0.1150 
     29 H29        -4.9834   -9.2436   34.4291 H         1 UNK         0.1150 
     30 H30        -5.6335  -10.9030   40.5164 H         1 UNK         0.1260 
     31 H31        -6.7068   -8.9401   42.1256 H         1 UNK         0.1260 
     32 H32        -8.9961   -1.6698   34.3537 H         1 UNK         0.0600 
     33 H33       -10.0547   -3.0254   33.7157 H         1 UNK         0.0600 
     34 H34        -7.9892   -4.4670   33.4215 H         1 UNK         0.0600 
     35 H35        -6.9582   -3.0967   34.0810 H         1 UNK         0.0600 
     36 H36        -9.1381   -5.7700   38.4248 H         1 UNK         0.0600 
     37 H37        -8.0613   -7.1173   38.3287 H         1 UNK         0.0600 
     38 H38        -7.2970   -3.7856   40.8816 H         1 UNK         0.0600 
     39 H39        -8.7546   -3.8934   39.9321 H         1 UNK         0.0600 
     40 H40        -6.2541   -5.5734   37.3839 H         1 UNK         0.0600 
     41 H41        -7.6442   -5.7208   36.3655 H         1 UNK         0.0600 
     42 H42        -7.0910   -2.3265   38.9100 H         1 UNK         0.0600 
     43 H43        -5.8955   -3.5884   38.8197 H         1 UNK         0.0600 
     44 H44        -9.3357   -4.5247   35.5539 H         1 UNK         0.0600 
@<TRIPOS>BOND
     1    1    2 ar   
     2    1    3 ar   
     3    1   26 1    
     4    2    4 ar   
     5    2   27 1    
     6    3    7 ar   
     7    3   28 1    
     8    4    8 ar   
     9    4   29 1    
    10    5    6 1    
    11    5    9 2    
    12    5   30 1    
    13    6   10 2    
    14    6   31 1    
    15    7    8 ar   
    16    7    9 1    
    17    8   25 1    
    18    9   24 1    
    19   10   11 1    
    20   10   24 1    
    21   11   20 am   BACKBONE|DICT|INTERRES
    22   11   22 2    
    23   12   19 1    
    24   12   21 am   BACKBONE|DICT|INTERRES
    25   12   23 2    
    26   13   14 1    
    27   13   19 1    
    28   13   32 1    
    29   13   33 1    
    30   14   19 1    
    31   14   34 1    
    32   14   35 1    
    33   15   17 1    
    34   15   20 1    
    35   15   36 1    
    36   15   37 1    
    37   16   18 1    
    38   16   20 1    
    39   16   38 1    
    40   16   39 1    
    41   17   21 1    
    42   17   40 1    
    43   17   41 1    
    44   18   21 1    
    45   18   42 1    
    46   18   43 1    
    47   19   44 1    
@<TRIPOS>SUBSTRUCTURE
     1 UNK         1 GROUP             0       ****    0 ROOT    
@<TRIPOS>MOLECULE
ZINC08843393_5
43   45    1
SMALL
USER_CHARGES


@<TRIPOS>ATOM
      1 C1         -7.3501  -12.7021   36.6742 C.ar      1 UNK        -0.1150 
      2 C2         -6.8424  -13.3831   35.5512 C.ar      1 UNK        -0.1150 
      3 C3         -9.1717  -13.1349   40.0089 C.2       1 UNK        -0.1540 
      4 C4         -9.4590  -11.9687   40.7717 C.2       1 UNK        -0.1540 
      5 C5         -8.1430  -14.8079   37.5902 C.ar      1 UNK        -0.1150 
      6 C6         -8.0071  -13.4059   37.7092 C.ar      1 UNK        -0.4134 
      7 C7         -6.9829  -14.7815   35.4417 C.ar      1 UNK        -0.1150 
      8 C8         -7.6372  -15.4946   36.4696 C.ar      1 UNK         0.1800 
      9 C9         -8.5370  -12.7090   38.8758 C.2       1 UNK         0.5364 
     10 C10        -8.9991  -10.9006   40.0447 C.2       1 UNK         0.0080 
     11 C11        -8.9791   -9.4857   40.3285 C.2       1 UNK         0.7137 
     12 C12       -11.8110   -6.0384   37.3033 C.2       1 UNK         0.5000 
     13 C13       -10.1360   -9.0556   38.1339 C.3       1 UNK        -0.0500 
     14 C14        -9.1857   -7.1745   39.3493 C.3       1 UNK        -0.0500 
     15 C15       -11.5211   -8.3776   38.1731 C.3       1 UNK        -0.0500 
     16 C16       -10.5673   -6.4950   39.3964 C.3       1 UNK        -0.0500 
     17 C17        -6.4291  -15.5052   34.2289 C.3       1 UNK        -0.0650 
     18 C18       -12.6074   -6.5524   36.1056 C.3       1 UNK        -0.1800 
     19 N19        -9.3582   -8.6389   39.3157 N.pl3     1 UNK        -0.2625 
     20 N20       -11.3515   -6.9175   38.2263 N.am      1 UNK        -0.1400 
     21 O21       -11.6148   -4.8280   37.3866 O.2       1 UNK        -0.5000 
     22 O22        -8.4144  -11.3532   38.8968 O.3       1 UNK        -0.1900 
     23 S23        -8.4772   -9.0092   41.8504 S.2       1 UNK        -0.4762 
     24 Cl24       -7.8302  -17.2090   36.3793 Cl        1 UNK        -0.1800 
     25 H25        -7.2245  -11.6297   36.7314 H         1 UNK         0.1150 
     26 H26        -6.3411  -12.8240   34.7742 H         1 UNK         0.1150 
     27 H27        -9.3946  -14.1610   40.2594 H         1 UNK         0.1260 
     28 H28        -9.9414  -11.9114   41.7373 H         1 UNK         0.1260 
     29 H29        -8.6385  -15.3798   38.3607 H         1 UNK         0.1150 
     30 H30       -10.2890  -10.1309   38.0611 H         1 UNK         0.0600 
     31 H31        -9.5958   -8.7645   37.2317 H         1 UNK         0.0600 
     32 H32        -8.6537   -6.8637   38.4490 H         1 UNK         0.0600 
     33 H33        -8.5729   -6.8233   40.1791 H         1 UNK         0.0600 
     34 H34       -12.1073   -8.7174   37.3206 H         1 UNK         0.0600 
     35 H35       -12.0749   -8.6994   39.0563 H         1 UNK         0.0600 
     36 H36       -11.0994   -6.7671   40.3090 H         1 UNK         0.0600 
     37 H37       -10.4324   -5.4127   39.4413 H         1 UNK         0.0600 
     38 H38        -5.6333  -16.1873   34.5294 H         1 UNK         0.0600 
     39 H39        -7.2131  -16.0853   33.7417 H         1 UNK         0.0600 
     40 H40        -6.0214  -14.8072   33.4977 H         1 UNK         0.0600 
     41 H41       -13.5129   -7.0622   36.4339 H         1 UNK         0.0600 
     42 H42       -12.0053   -7.2336   35.5048 H         1 UNK         0.0600 
     43 H43       -12.9063   -5.7203   35.4676 H         1 UNK         0.0600 
@<TRIPOS>BOND
     1    1    2 ar   
     2    1    6 ar   
     3    1   25 1    
     4    2    7 ar   
     5    2   26 1    
     6    3    4 1    
     7    3    9 2    
     8    3   27 1    
     9    4   10 2    
    10    4   28 1    
    11    5    6 ar   
    12    5    8 ar   
    13    5   29 1    
    14    6    9 1    
    15    7    8 ar   
    16    7   17 1    
    17    8   24 1    
    18    9   22 1    
    19   10   11 1    
    20   10   22 1    
    21   11   19 1    
    22   11   23 2    
    23   12   18 1    
    24   12   20 am   BACKBONE|DICT|INTERRES
    25   12   21 2    
    26   13   15 1    
    27   13   19 1    
    28   13   30 1    
    29   13   31 1    
    30   14   16 1    
    31   14   19 1    
    32   14   32 1    
    33   14   33 1    
    34   15   20 1    
    35   15   34 1    
    36   15   35 1    
    37   16   20 1    
    38   16   36 1    
    39   16   37 1    
    40   17   38 1    
    41   17   39 1    
    42   17   40 1    
    43   18   41 1    
    44   18   42 1    
    45   18   43 1    
@<TRIPOS>SUBSTRUCTURE
     1 UNK         1 GROUP             0       ****    0 ROOT    
@<TRIPOS>MOLECULE
ZINC08848787_57
48   51    1
SMALL
USER_CHARGES


@<TRIPOS>ATOM
      1 C1         -9.4207  -17.5940   34.8473 C.ar      1 UNK        -0.1150 
      2 C2        -10.2590  -16.4979   35.1230 C.ar      1 UNK        -0.1150 
      3 C3         -9.1477  -18.5373   35.8554 C.ar      1 UNK        -0.1150 
      4 C4        -10.8248  -16.3477   36.4037 C.ar      1 UNK        -0.1150 
      5 C5         -9.7131  -18.3867   37.1369 C.ar      1 UNK        -0.1150 
      6 C6        -12.6841  -12.1598   38.4737 C.ar      1 UNK        -0.1150 
      7 C7        -11.6582  -10.2381   39.5612 C.ar      1 UNK        -0.1150 
      8 C8        -13.5505   -9.9225   38.0682 C.ar      1 UNK        -0.1150 
      9 C9        -11.7066  -11.6300   39.3448 C.ar      1 UNK        -0.1150 
     10 C10       -10.5602  -17.2894   37.4239 C.ar      1 UNK         0.1002 
     11 C11       -13.6162  -11.3097   37.8318 C.ar      1 UNK         0.0850 
     12 C12       -12.5717   -9.3721   38.9316 C.ar      1 UNK         0.0850 
     13 C13       -12.3421  -15.5955   41.6540 C.ar      1 UNK         0.5000 
     14 C14       -11.8400  -14.1245   41.4883 C.ar      1 UNK         0.5000 
     15 C15       -11.2928  -16.0291   39.5290 C.ar      1 UNK         0.4565 
     16 C16       -11.6725  -18.3239   39.3222 C.3       1 UNK         0.0990 
     17 C17       -12.3862  -17.8339   40.5807 C.3       1 UNK         0.0025 
     18 C18       -14.7071  -13.1457   36.7332 C.3       1 UNK         0.1100 
     19 C19       -13.3521   -7.1295   38.5852 C.3       1 UNK         0.1100 
     20 C20       -10.6839  -12.5259   40.0387 C.3       1 UNK         0.1950 
     21 N21       -10.8477  -14.8209   39.3384 N.2       1 UNK        -0.3590 
     22 N22       -11.1504  -17.1217   38.6893 N.pl3     1 UNK        -0.2942 
     23 N23       -12.0243  -16.4287   40.6439 N.pl3     1 UNK        -0.2450 
     24 N24       -11.1586  -13.8839   40.3298 N.pl3     1 UNK        -0.2000 
     25 O25       -12.9836  -15.9538   42.6452 O.2       1 UNK        -0.5000 
     26 O26       -12.0569  -13.2790   42.3574 O.2       1 UNK        -0.5000 
     27 O27       -14.5997  -11.7497   36.9718 O.3       1 UNK        -0.2850 
     28 O28       -12.4429   -8.0273   39.2041 O.3       1 UNK        -0.2850 
     29 H29        -8.9842  -17.7089   33.8652 H         1 UNK         0.1150 
     30 H30       -10.4674  -15.7695   34.3525 H         1 UNK         0.1150 
     31 H31        -8.4992  -19.3761   35.6462 H         1 UNK         0.1150 
     32 H32       -11.4657  -15.4996   36.5988 H         1 UNK         0.1150 
     33 H33        -9.4727  -19.1181   37.8935 H         1 UNK         0.1150 
     34 H34       -12.7037  -13.2237   38.3037 H         1 UNK         0.1150 
     35 H35       -10.9129   -9.8197   40.2221 H         1 UNK         0.1150 
     36 H36       -14.2717   -9.2970   37.5660 H         1 UNK         0.1150 
     37 H37       -10.8594  -18.9963   39.5969 H         1 UNK         0.0600 
     38 H38       -12.3526  -18.8577   38.6567 H         1 UNK         0.0600 
     39 H39       -13.4690  -17.9337   40.4920 H         1 UNK         0.0600 
     40 H40       -12.0598  -18.3711   41.4726 H         1 UNK         0.0600 
     41 H41       -15.5335  -13.3311   36.0472 H         1 UNK         0.0300 
     42 H42       -14.9145  -13.6927   37.6541 H         1 UNK         0.0300 
     43 H43       -13.8014  -13.5422   36.2720 H         1 UNK         0.0300 
     44 H44       -14.3816   -7.3391   38.8786 H         1 UNK         0.0300 
     45 H45       -13.2705   -7.1663   37.4980 H         1 UNK         0.0300 
     46 H46       -13.1212   -6.1114   38.8982 H         1 UNK         0.0300 
     47 H47        -9.8004  -12.5756   39.4003 H         1 UNK         0.0600 
     48 H48       -10.3422  -12.0413   40.9561 H         1 UNK         0.0600 
@<TRIPOS>BOND
     1    1    2 ar   
     2    1    3 ar   
     3    1   29 1    
     4    2    4 ar   
     5    2   30 1    
     6    3    5 ar   
     7    3   31 1    
     8    4   10 ar   
     9    4   32 1    
    10    5   10 ar   
    11    5   33 1    
    12    6    9 ar   
    13    6   11 ar   
    14    6   34 1    
    15    7    9 ar   
    16    7   12 ar   
    17    7   35 1    
    18    8   11 ar   
    19    8   12 ar   
    20    8   36 1    
    21    9   20 1    
    22   10   22 1    
    23   11   27 1    
    24   12   28 1    
    25   13   14 ar   
    26   13   23 ar   
    27   13   25 2    
    28   14   24 ar   
    29   14   26 2    
    30   15   21 ar   
    31   15   22 1    
    32   15   23 ar   
    33   16   17 1    
    34   16   22 1    
    35   16   37 1    
    36   16   38 1    
    37   17   23 1    
    38   17   39 1    
    39   17   40 1    
    40   18   27 1    
    41   18   41 1    
    42   18   42 1    
    43   18   43 1    
    44   19   28 1    
    45   19   44 1    
    46   19   45 1    
    47   19   46 1    
    48   20   24 1    
    49   20   47 1    
    50   20   48 1    
    51   21   24 ar   
@<TRIPOS>SUBSTRUCTURE
     1 UNK         1 GROUP             0       ****    0 ROOT    
@<TRIPOS>MOLECULE
ZINC08867320_84
43   45    1
SMALL
USER_CHARGES


@<TRIPOS>ATOM
      1 C1         -4.7432  -10.2604   38.4653 C.ar      1 UNK        -0.1150 
      2 C2         -4.3544  -11.4783   37.8613 C.ar      1 UNK        -0.1150 
      3 C3         -4.6829   -9.1238   36.2934 C.ar      1 UNK        -0.1150 
      4 C4         -7.7115   -5.7809   38.3275 C.ar      1 UNK        -0.1150 
      5 C5         -6.5647   -3.9196   39.4029 C.ar      1 UNK        -0.1150 
      6 C6         -4.9103   -9.0770   37.6913 C.ar      1 UNK         0.0000 
      7 C7         -6.7624   -5.3094   39.2624 C.ar      1 UNK        -0.1150 
      8 C8         -4.1383  -11.4835   36.4759 C.ar      1 UNK         0.0850 
      9 C9         -4.2975  -10.3442   35.7175 C.ar      1 UNK         0.0850 
     10 C10        -8.4430   -4.8787   37.5182 C.ar      1 UNK         0.0850 
     11 C11        -7.2842   -2.9992   38.6044 C.ar      1 UNK         0.0850 
     12 C12        -8.2110   -3.4903   37.6587 C.ar      1 UNK         0.0850 
     13 C13        -5.3148   -7.7926   38.2884 C.2       1 UNK        -0.1150 
     14 C14        -5.5661   -7.5599   39.5937 C.2       1 UNK        -0.1150 
     15 C15        -5.9693   -6.2397   40.1191 C.2       1 UNK         0.5850 
     16 C16        -3.6854  -11.9841   34.3789 C.3       1 UNK         0.2000 
     17 C17        -9.6815   -6.6597   36.4716 C.3       1 UNK         0.1100 
     18 C18        -6.2429   -1.1067   39.6615 C.3       1 UNK         0.1100 
     19 C19        -8.4308   -2.4864   35.5639 C.3       1 UNK         0.1100 
     20 O20        -5.6196   -5.9058   41.2493 O.2       1 UNK        -0.4700 
     21 O21        -3.7639  -12.5142   35.6773 O.3       1 UNK        -0.2850 
     22 O22        -4.0280  -10.6222   34.4169 O.3       1 UNK        -0.2850 
     23 O23        -9.3855   -5.2765   36.5917 O.3       1 UNK        -0.2850 
     24 O24        -7.1267   -1.6306   38.6819 O.3       1 UNK        -0.2850 
     25 O25        -8.9107   -2.5925   36.8936 O.3       1 UNK        -0.2850 
     26 H26        -4.9078  -10.2569   39.5314 H         1 UNK         0.1150 
     27 H27        -4.2252  -12.3784   38.4436 H         1 UNK         0.1150 
     28 H28        -4.7976   -8.2479   35.6720 H         1 UNK         0.1150 
     29 H29        -7.8784   -6.8439   38.2512 H         1 UNK         0.1150 
     30 H30        -5.8448   -3.5787   40.1322 H         1 UNK         0.1150 
     31 H31        -5.4053   -6.9720   37.5896 H         1 UNK         0.1150 
     32 H32        -5.4596   -8.3396   40.3303 H         1 UNK         0.1150 
     33 H33        -2.6685  -12.0945   34.0002 H         1 UNK         0.1000 
     34 H34        -4.3746  -12.5176   33.7231 H         1 UNK         0.1000 
     35 H35       -10.4554   -6.7962   35.7162 H         1 UNK         0.0300 
     36 H36       -10.0613   -7.0688   37.4087 H         1 UNK         0.0300 
     37 H37        -8.8075   -7.2298   36.1537 H         1 UNK         0.0300 
     38 H38        -6.2549   -0.0181   39.6103 H         1 UNK         0.0300 
     39 H39        -5.2166   -1.4329   39.4881 H         1 UNK         0.0300 
     40 H40        -6.5487   -1.3926   40.6688 H         1 UNK         0.0300 
     41 H41        -8.9887   -1.7120   35.0379 H         1 UNK         0.0300 
     42 H42        -8.5523   -3.4181   35.0110 H         1 UNK         0.0300 
     43 H43        -7.3762   -2.2073   35.5495 H         1 UNK         0.0300 
@<TRIPOS>BOND
     1    1    2 ar   
     2    1    6 ar   
     3    1   26 1    
     4    2    8 ar   
     5    2   27 1    
     6    3    6 ar   
     7    3    9 ar   
     8    3   28 1    
     9    4    7 ar   
    10    4   10 ar   
    11    4   29 1    
    12    5    7 ar   
    13    5   11 ar   
    14    5   30 1    
    15    6   13 1    
    16    7   15 1    
    17    8    9 ar   
    18    8   21 1    
    19    9   22 1    
    20   10   12 ar   
    21   10   23 1    
    22   11   12 ar   
    23   11   24 1    
    24   12   25 1    
    25   13   14 2    
    26   13   31 1    
    27   14   15 1    
    28   14   32 1    
    29   15   20 2    
    30   16   21 1    
    31   16   22 1    
    32   16   33 1    
    33   16   34 1    
    34   17   23 1    
    35   17   35 1    
    36   17   36 1    
    37   17   37 1    
    38   18   24 1    
    39   18   38 1    
    40   18   39 1    
    41   18   40 1    
    42   19   25 1    
    43   19   41 1    
    44   19   42 1    
    45   19   43 1    
@<TRIPOS>SUBSTRUCTURE
     1 UNK         1 GROUP             0       ****    0 ROOT    
@<TRIPOS>MOLECULE
ZINC08917586_119
50   52    1
SMALL
USER_CHARGES


@<TRIPOS>ATOM
      1 C1         -6.7655  -14.1072   37.7645 C.ar      1 UNK        -0.1150 
      2 C2         -6.6860  -11.9075   36.7327 C.ar      1 UNK        -0.1150 
      3 C3         -6.5627  -14.6997   36.5034 C.ar      1 UNK        -0.1150 
      4 C4         -6.4820  -12.5017   35.4722 C.ar      1 UNK        -0.1150 
      5 C5        -10.5608   -5.1094   37.0029 C.ar      1 UNK        -0.1150 
      6 C6        -10.0074   -6.1622   36.2516 C.ar      1 UNK        -0.1150 
      7 C7        -10.0041   -6.2734   39.0620 C.ar      1 UNK        -0.1150 
      8 C8         -6.8228  -12.7011   37.8952 C.ar      1 UNK         0.2000 
      9 C9         -9.4454   -7.3365   38.3125 C.ar      1 UNK         0.0850 
     10 C10        -6.4168  -13.9104   35.3470 C.ar      1 UNK         0.0850 
     11 C11       -10.5664   -5.1495   38.4089 C.ar      1 UNK         0.0850 
     12 C12        -9.4438   -7.2865   36.9010 C.ar      1 UNK         0.0850 
     13 C13        -7.0126  -12.1383   41.5819 C.ar      1 UNK        -0.1150 
     14 C14        -6.7176  -12.6912   40.3930 C.ar      1 UNK         0.0075 
     15 C15        -7.7028  -10.8367   41.6347 C.ar      1 UNK         0.4700 
     16 C16        -7.9930  -10.2196   40.2912 C.ar      1 UNK         0.4529 
     17 C17        -8.6685   -8.8788   40.1617 C.2       1 UNK         0.3238 
     18 C18        -5.8768  -14.7784   31.7995 C.3       1 UNK        -0.1800 
     19 C19       -11.1397   -4.0787   40.4793 C.3       1 UNK         0.1100 
     20 C20        -8.8849   -8.3470   34.8164 C.3       1 UNK         0.1100 
     21 C21        -6.0767  -13.8143   32.9702 C.3       1 UNK         0.1400 
     22 N22        -7.6588  -10.8468   39.1948 N.2       1 UNK        -0.3551 
     23 N23        -7.0350  -12.0811   39.1657 N.pl3     1 UNK        -0.2441 
     24 N24        -8.8648   -8.5006   38.8812 N.am      1 UNK        -0.3850 
     25 O25        -7.9992  -10.3293   42.7178 O.2       1 UNK        -0.4700 
     26 O26        -9.0057   -8.1947   41.1276 O.2       1 UNK        -0.5000 
     27 O27       -11.1292   -4.0721   39.0585 O.3       1 UNK        -0.2850 
     28 O28        -8.8804   -8.3592   36.2360 O.3       1 UNK        -0.2850 
     29 O29        -6.2219  -14.5784   34.1584 O.3       1 UNK        -0.2850 
     30 H30        -6.8967  -14.7546   38.6171 H         1 UNK         0.1150 
     31 H31        -6.7267  -10.8303   36.7978 H         1 UNK         0.1150 
     32 H32        -6.5242  -15.7758   36.4181 H         1 UNK         0.1150 
     33 H33        -6.3782  -11.8517   34.6175 H         1 UNK         0.1150 
     34 H34       -10.9879   -4.2563   36.4967 H         1 UNK         0.1150 
     35 H35       -10.0292   -6.0793   35.1766 H         1 UNK         0.1150 
     36 H36       -10.0032   -6.3205   40.1373 H         1 UNK         0.1150 
     37 H37        -6.7454  -12.6151   42.5122 H         1 UNK         0.1150 
     38 H38        -6.1818  -13.6256   40.3157 H         1 UNK         0.1150 
     39 H39        -4.9863  -15.3901   31.9459 H         1 UNK         0.0600 
     40 H40        -6.7303  -15.4488   31.6966 H         1 UNK         0.0600 
     41 H41        -5.7612  -14.2360   30.8612 H         1 UNK         0.0600 
     42 H42       -11.6073   -3.1630   40.8406 H         1 UNK         0.0300 
     43 H43       -10.1278   -4.1143   40.8856 H         1 UNK         0.0300 
     44 H44       -11.7157   -4.9188   40.8703 H         1 UNK         0.0300 
     45 H45        -8.4156   -9.2596   34.4489 H         1 UNK         0.0300 
     46 H46        -8.3173   -7.5027   34.4227 H         1 UNK         0.0300 
     47 H47        -9.9012   -8.3169   34.4213 H         1 UNK         0.0300 
     48 H48        -6.9663  -13.2067   32.7969 H         1 UNK         0.0300 
     49 H49        -5.2160  -13.1484   33.0485 H         1 UNK         0.0300 
     50 H50        -8.5325   -9.1695   38.1975 H         1 UNK         0.3000 
@<TRIPOS>BOND
     1    1    3 ar   
     2    1    8 ar   
     3    1   30 1    
     4    2    4 ar   
     5    2    8 ar   
     6    2   31 1    
     7    3   10 ar   
     8    3   32 1    
     9    4   10 ar   
    10    4   33 1    
    11    5    6 ar   
    12    5   11 ar   
    13    5   34 1    
    14    6   12 ar   
    15    6   35 1    
    16    7    9 ar   
    17    7   11 ar   
    18    7   36 1    
    19    8   23 1    
    20    9   12 ar   
    21    9   24 1    
    22   10   29 1    
    23   11   27 1    
    24   12   28 1    
    25   13   14 ar   
    26   13   15 ar   
    27   13   37 1    
    28   14   23 ar   
    29   14   38 1    
    30   15   16 ar   
    31   15   25 2    
    32   16   17 1    
    33   16   22 ar   
    34   17   24 am   BACKBONE|DICT|INTERRES
    35   17   26 2    
    36   18   21 1    
    37   18   39 1    
    38   18   40 1    
    39   18   41 1    
    40   19   27 1    
    41   19   42 1    
    42   19   43 1    
    43   19   44 1    
    44   20   28 1    
    45   20   45 1    
    46   20   46 1    
    47   20   47 1    
    48   21   29 1    
    49   21   48 1    
    50   21   49 1    
    51   22   23 ar   
    52   24   50 1    
@<TRIPOS>SUBSTRUCTURE
     1 UNK         1 GROUP             0       ****    0 ROOT    
@<TRIPOS>MOLECULE
ZINC08945007_174
46   48    1
SMALL
USER_CHARGES


@<TRIPOS>ATOM
      1 C1         -5.7905  -11.9275   37.0240 C.ar      1 UNK        -0.1150 
      2 C2         -4.7966   -9.7234   36.7427 C.ar      1 UNK        -0.1150 
      3 C3         -5.4054  -12.2676   35.7122 C.ar      1 UNK        -0.1150 
      4 C4         -4.4135  -10.0608   35.4302 C.ar      1 UNK        -0.1150 
      5 C5         -8.6391   -3.5132   37.4921 C.ar      1 UNK        -0.1150 
      6 C6         -8.2772   -4.7669   36.9656 C.ar      1 UNK        -0.1150 
      7 C7         -7.6861   -4.1288   39.6409 C.ar      1 UNK        -0.1150 
      8 C8         -6.8728  -10.0755   41.1639 C.2       1 UNK        -0.3376 
      9 C9         -5.4906  -10.6507   37.5525 C.ar      1 UNK         0.0000 
     10 C10        -4.7151  -11.3355   34.9118 C.ar      1 UNK        -0.1150 
     11 C11        -7.3295   -5.3959   39.1208 C.ar      1 UNK         0.0850 
     12 C12        -8.3490   -3.1779   38.8274 C.ar      1 UNK         0.0850 
     13 C13        -7.6156   -5.7200   37.7764 C.ar      1 UNK         0.0850 
     14 C14        -6.0626   -9.0214   40.8215 C.2       1 UNK         0.1693 
     15 C15        -5.8872  -10.2729   38.9117 C.2       1 UNK         0.3009 
     16 C16        -6.5144   -6.5572   41.1933 C.2       1 UNK         0.5000 
     17 C17        -4.3009  -11.6980   33.5006 C.3       1 UNK        -0.0650 
     18 C18        -8.4651   -1.5621   40.5987 C.3       1 UNK         0.1100 
     19 C19        -7.5687   -7.3543   36.0124 C.3       1 UNK         0.1100 
     20 C20        -5.7443   -7.8043   41.6529 C.3       1 UNK        -0.0050 
     21 N21        -5.4996   -9.1608   39.5468 N.2       1 UNK        -0.4803 
     22 N22        -6.6514   -6.3938   39.8667 N.am      1 UNK        -0.3850 
     23 O23        -6.9420   -5.7721   42.0392 O.2       1 UNK        -0.5000 
     24 O24        -8.7337   -1.9244   39.2515 O.3       1 UNK        -0.2850 
     25 O25        -7.2239   -6.9686   37.3347 O.3       1 UNK        -0.2850 
     26 S26        -6.9763  -11.2599   39.8890 S.3       1 UNK         0.0010 
     27 H27        -6.3145  -12.6623   37.6164 H         1 UNK         0.1150 
     28 H28        -4.5605   -8.7414   37.1271 H         1 UNK         0.1150 
     29 H29        -5.6422  -13.2483   35.3255 H         1 UNK         0.1150 
     30 H30        -3.8865   -9.3362   34.8262 H         1 UNK         0.1150 
     31 H31        -9.1430   -2.7937   36.8634 H         1 UNK         0.1150 
     32 H32        -8.5169   -4.9697   35.9338 H         1 UNK         0.1150 
     33 H33        -7.4413   -3.8876   40.6618 H         1 UNK         0.1150 
     34 H34        -7.4240  -10.2239   42.0809 H         1 UNK         0.2317 
     35 H35        -5.0296  -11.3172   32.7848 H         1 UNK         0.0600 
     36 H36        -3.3272  -11.2687   33.2621 H         1 UNK         0.0600 
     37 H37        -4.2302  -12.7790   33.3763 H         1 UNK         0.0600 
     38 H38        -8.8326   -0.5522   40.7797 H         1 UNK         0.0300 
     39 H39        -7.3942   -1.5649   40.8064 H         1 UNK         0.0300 
     40 H40        -8.9704   -2.2278   41.2999 H         1 UNK         0.0300 
     41 H41        -7.2359   -8.3771   35.8357 H         1 UNK         0.0300 
     42 H42        -7.0830   -6.7167   35.2727 H         1 UNK         0.0300 
     43 H43        -8.6483   -7.3313   35.8585 H         1 UNK         0.0300 
     44 H44        -5.9745   -7.9885   42.7026 H         1 UNK         0.0600 
     45 H45        -4.6785   -7.5807   41.6092 H         1 UNK         0.0600 
     46 H46        -6.3064   -7.1685   39.3084 H         1 UNK         0.3000 
@<TRIPOS>BOND
     1    1    3 ar   
     2    1    9 ar   
     3    1   27 1    
     4    2    4 ar   
     5    2    9 ar   
     6    2   28 1    
     7    3   10 ar   
     8    3   29 1    
     9    4   10 ar   
    10    4   30 1    
    11    5    6 ar   
    12    5   12 ar   
    13    5   31 1    
    14    6   13 ar   
    15    6   32 1    
    16    7   11 ar   
    17    7   12 ar   
    18    7   33 1    
    19    8   14 2    
    20    8   26 1    
    21    8   34 1    
    22    9   15 1    
    23   10   17 1    
    24   11   13 ar   
    25   11   22 1    
    26   12   24 1    
    27   13   25 1    
    28   14   20 1    
    29   14   21 1    
    30   15   21 2    
    31   15   26 1    
    32   16   20 1    
    33   16   22 am   BACKBONE|DICT|INTERRES
    34   16   23 2    
    35   17   35 1    
    36   17   36 1    
    37   17   37 1    
    38   18   24 1    
    39   18   38 1    
    40   18   39 1    
    41   18   40 1    
    42   19   25 1    
    43   19   41 1    
    44   19   42 1    
    45   19   43 1    
    46   20   44 1    
    47   20   45 1    
    48   22   46 1    
@<TRIPOS>SUBSTRUCTURE
     1 UNK         1 GROUP             0       ****    0 ROOT    
@<TRIPOS>MOLECULE
ZINC08945671_89
44   46    1
SMALL
USER_CHARGES


@<TRIPOS>ATOM
      1 C1         -2.3841  -12.9345   37.3298 C.2       1 UNK        -0.0738 
      2 C2         -3.0056  -11.8377   38.0008 C.2       1 UNK        -0.0738 
      3 C3         -9.1381   -5.8368   38.0347 C.ar      1 UNK        -0.1150 
      4 C4         -7.7464   -4.1854   39.1491 C.ar      1 UNK        -0.1150 
      5 C5         -3.2856  -13.7665   36.7106 C.2       1 UNK        -0.3255 
      6 C6         -8.0513   -5.5369   38.8748 C.ar      1 UNK         0.0850 
      7 C7         -9.9042   -4.8058   37.4420 C.ar      1 UNK         0.0850 
      8 C8         -8.4979   -3.1305   38.5716 C.ar      1 UNK         0.0850 
      9 C9         -9.5746   -3.4538   37.6953 C.ar      1 UNK         0.0850 
     10 C10        -4.3718  -11.8713   37.8668 C.2       1 UNK        -0.0637 
     11 C11        -5.2128  -10.8581   38.4677 C.2       1 UNK         0.3617 
     12 C12        -6.9615   -9.7186   39.0437 C.2       1 UNK         0.5159 
     13 C13        -6.1302   -6.6989   39.9996 C.2       1 UNK         0.5000 
     14 C14       -11.3333   -6.3869   36.3180 C.3       1 UNK         0.1100 
     15 C15        -7.1435   -1.4751   39.6990 C.3       1 UNK         0.1100 
     16 C16        -9.8042   -1.2899   36.6581 C.3       1 UNK         0.1100 
     17 C17        -5.6355   -8.0685   40.4987 C.3       1 UNK         0.0800 
     18 N18        -4.7407   -9.9194   39.2048 N.2       1 UNK        -0.2833 
     19 N19        -5.8001   -9.1916   39.5671 N.am      1 UNK        -0.1323 
     20 N20        -7.3503   -6.6407   39.4349 N.am      1 UNK        -0.3850 
     21 O21        -8.1134   -9.3102   39.1850 O.2       1 UNK        -0.4970 
     22 O22        -5.3880   -5.7278   40.1295 O.2       1 UNK        -0.5000 
     23 O23        -6.5768  -10.7787   38.3322 O.3       1 UNK        -0.1650 
     24 O24       -10.9743   -5.0432   36.6017 O.3       1 UNK        -0.2850 
     25 O25        -8.2398   -1.8027   38.8567 O.3       1 UNK        -0.2850 
     26 O26       -10.3794   -2.5197   37.0727 O.3       1 UNK        -0.2850 
     27 S27        -4.9321  -13.2248   36.9292 S.3       1 UNK         0.0328 
     28 H28        -1.3118  -13.0724   37.3259 H         1 UNK         0.1211 
     29 H29        -2.4383  -11.0905   38.5383 H         1 UNK         0.1211 
     30 H30        -9.3698   -6.8746   37.8502 H         1 UNK         0.1150 
     31 H31        -6.9402   -3.9613   39.8262 H         1 UNK         0.1150 
     32 H32        -3.0862  -14.6623   36.1387 H         1 UNK         0.2618 
     33 H33       -12.1951   -6.3940   35.6509 H         1 UNK         0.0300 
     34 H34       -11.6143   -6.9257   37.2238 H         1 UNK         0.0300 
     35 H35       -10.5238   -6.9179   35.8154 H         1 UNK         0.0300 
     36 H36        -7.0649   -0.3910   39.7784 H         1 UNK         0.0300 
     37 H37        -6.2005   -1.8432   39.2922 H         1 UNK         0.0300 
     38 H38        -7.2835   -1.8683   40.7067 H         1 UNK         0.0300 
     39 H39       -10.3831   -0.8900   35.8258 H         1 UNK         0.0300 
     40 H40        -8.7756   -1.4095   36.3140 H         1 UNK         0.0300 
     41 H41        -9.8371   -0.5505   37.4587 H         1 UNK         0.0300 
     42 H42        -6.1719   -8.3027   41.4184 H         1 UNK         0.0600 
     43 H43        -4.5848   -7.9737   40.7780 H         1 UNK         0.0600 
     44 H44        -7.8191   -7.5411   39.3505 H         1 UNK         0.3000 
@<TRIPOS>BOND
     1    1    2 1    
     2    1    5 2    
     3    1   28 1    
     4    2   10 2    
     5    2   29 1    
     6    3    6 ar   
     7    3    7 ar   
     8    3   30 1    
     9    4    6 ar   
    10    4    8 ar   
    11    4   31 1    
    12    5   27 1    
    13    5   32 1    
    14    6   20 1    
    15    7    9 ar   
    16    7   24 1    
    17    8    9 ar   
    18    8   25 1    
    19    9   26 1    
    20   10   11 1    
    21   10   27 1    
    22   11   18 2    
    23   11   23 1    
    24   12   19 am   BACKBONE|DICT|INTERRES
    25   12   21 2    
    26   12   23 1    
    27   13   17 1    
    28   13   20 am   BACKBONE|DICT|INTERRES
    29   13   22 2    
    30   14   24 1    
    31   14   33 1    
    32   14   34 1    
    33   14   35 1    
    34   15   25 1    
    35   15   36 1    
    36   15   37 1    
    37   15   38 1    
    38   16   26 1    
    39   16   39 1    
    40   16   40 1    
    41   16   41 1    
    42   17   19 1    
    43   17   42 1    
    44   17   43 1    
    45   18   19 1    
    46   20   44 1    
@<TRIPOS>SUBSTRUCTURE
     1 UNK         1 GROUP             0       ****    0 ROOT    
@<TRIPOS>MOLECULE
ZINC09205486_14
39   41    1
SMALL
USER_CHARGES


@<TRIPOS>ATOM
      1 C1         -7.7858  -14.3455   35.1490 C.ar      1 UNK        -0.1150 
      2 C2         -7.7664  -15.1837   36.2793 C.ar      1 UNK        -0.1150 
      3 C3         -7.8051  -12.9483   35.3144 C.ar      1 UNK        -0.1150 
      4 C4         -7.7606  -14.6267   37.5735 C.ar      1 UNK        -0.1150 
      5 C5         -7.8011  -12.3911   36.6081 C.ar      1 UNK        -0.1150 
      6 C6        -11.0086   -6.5426   36.8426 C.ar      1 UNK        -0.1150 
      7 C7        -11.4384   -5.5237   37.7134 C.ar      1 UNK        -0.1150 
      8 C8        -10.6272   -6.8034   39.6206 C.ar      1 UNK        -0.1150 
      9 C9         -7.7709  -13.2228   37.7532 C.ar      1 UNK         0.2000 
     10 C10       -10.1906   -7.8310   38.7500 C.ar      1 UNK         0.0850 
     11 C11       -10.3814   -7.7058   37.3545 C.ar      1 UNK         0.0850 
     12 C12       -11.2489   -5.6538   39.1002 C.ar      1 UNK         0.1800 
     13 C13        -7.3824  -12.7837   41.4410 C.ar      1 UNK        -0.1150 
     14 C14        -7.2804  -13.2976   40.2034 C.ar      1 UNK         0.0075 
     15 C15        -8.0362  -11.4781   41.6414 C.ar      1 UNK         0.4700 
     16 C16        -8.5149  -10.8098   40.3787 C.ar      1 UNK         0.4529 
     17 C17        -9.1766   -9.4563   40.3977 C.2       1 UNK         0.3238 
     18 C18       -10.1278   -8.6635   35.1623 C.3       1 UNK         0.1100 
     19 N19        -8.3623  -11.4017   39.2241 N.2       1 UNK        -0.3551 
     20 N20        -7.7723  -12.6423   39.0598 N.pl3     1 UNK        -0.2441 
     21 N21        -9.5578   -9.0281   39.1762 N.am      1 UNK        -0.3850 
     22 O22        -8.1589  -11.0071   42.7734 O.2       1 UNK        -0.4700 
     23 O23        -9.3509   -8.8013   41.4246 O.2       1 UNK        -0.5000 
     24 O24        -9.9329   -8.7483   36.5663 O.3       1 UNK        -0.2850 
     25 Cl25      -11.7818   -4.4010   40.1591 Cl        1 UNK        -0.1800 
     26 H26        -7.7908  -14.7739   34.1567 H         1 UNK         0.1150 
     27 H27        -7.7622  -16.2568   36.1542 H         1 UNK         0.1150 
     28 H28        -7.8228  -12.3014   34.4495 H         1 UNK         0.1150 
     29 H29        -7.7704  -15.2974   38.4184 H         1 UNK         0.1150 
     30 H30        -7.8116  -11.3160   36.7119 H         1 UNK         0.1150 
     31 H31       -11.1728   -6.4053   35.7854 H         1 UNK         0.1150 
     32 H32       -11.9160   -4.6388   37.3191 H         1 UNK         0.1150 
     33 H33       -10.5000   -6.8708   40.6896 H         1 UNK         0.1150 
     34 H34        -6.9836  -13.2953   42.3032 H         1 UNK         0.1150 
     35 H35        -6.7757  -14.2332   40.0137 H         1 UNK         0.1150 
     36 H36        -9.7332   -9.5633   34.6903 H         1 UNK         0.0300 
     37 H37        -9.5989   -7.8093   34.7374 H         1 UNK         0.0300 
     38 H38       -11.1870   -8.5966   34.9097 H         1 UNK         0.0300 
     39 H39        -9.3422   -9.6735   38.4260 H         1 UNK         0.3000 
@<TRIPOS>BOND
     1    1    2 ar   
     2    1    3 ar   
     3    1   26 1    
     4    2    4 ar   
     5    2   27 1    
     6    3    5 ar   
     7    3   28 1    
     8    4    9 ar   
     9    4   29 1    
    10    5    9 ar   
    11    5   30 1    
    12    6    7 ar   
    13    6   11 ar   
    14    6   31 1    
    15    7   12 ar   
    16    7   32 1    
    17    8   10 ar   
    18    8   12 ar   
    19    8   33 1    
    20    9   20 1    
    21   10   11 ar   
    22   10   21 1    
    23   11   24 1    
    24   12   25 1    
    25   13   14 ar   
    26   13   15 ar   
    27   13   34 1    
    28   14   20 ar   
    29   14   35 1    
    30   15   16 ar   
    31   15   22 2    
    32   16   17 1    
    33   16   19 ar   
    34   17   21 am   BACKBONE|DICT|INTERRES
    35   17   23 2    
    36   18   24 1    
    37   18   36 1    
    38   18   37 1    
    39   18   38 1    
    40   19   20 ar   
    41   21   39 1    
@<TRIPOS>SUBSTRUCTURE
     1 UNK         1 GROUP             0       ****    0 ROOT    
@<TRIPOS>MOLECULE
ZINC09205545_43
45   47    1
SMALL
USER_CHARGES


@<TRIPOS>ATOM
      1 C1        -11.7793   -5.8037   39.1234 C.ar      1 UNK        -0.1150 
      2 C2        -11.8977   -5.6446   37.7313 C.ar      1 UNK        -0.1150 
      3 C3         -7.6192  -15.0184   36.2622 C.ar      1 UNK        -0.1150 
      4 C4         -7.8585  -12.7836   35.3270 C.ar      1 UNK        -0.1150 
      5 C5         -7.6537  -14.4786   37.5630 C.ar      1 UNK        -0.1150 
      6 C6         -7.8936  -12.2446   36.6273 C.ar      1 UNK        -0.1150 
      7 C7        -11.0957   -6.9151   39.6489 C.ar      1 UNK        -0.1150 
      8 C8        -11.3328   -6.5967   36.8618 C.ar      1 UNK        -0.1150 
      9 C9         -7.7183  -14.1723   35.1401 C.ar      1 UNK        -0.1150 
     10 C10        -7.7843  -13.0838   37.7619 C.ar      1 UNK         0.2000 
     11 C11       -10.5247   -7.8729   38.7787 C.ar      1 UNK         0.0850 
     12 C12       -10.6416   -7.7215   37.3778 C.ar      1 UNK         0.0850 
     13 C13        -7.4444  -12.6611   41.4587 C.ar      1 UNK        -0.1150 
     14 C14        -7.3007  -13.1536   40.2163 C.ar      1 UNK         0.0075 
     15 C15        -8.1873  -11.4052   41.6692 C.ar      1 UNK         0.4700 
     16 C16        -8.7017  -10.7570   40.4104 C.ar      1 UNK         0.4529 
     17 C17        -9.4531   -9.4514   40.4365 C.2       1 UNK         0.3238 
     18 C18        -7.6840  -14.7468   33.7389 C.3       1 UNK        -0.0650 
     19 C19       -11.5651   -9.1955   34.7521 C.3       1 UNK        -0.1800 
     20 C20       -10.1925   -8.6631   35.1836 C.3       1 UNK         0.1400 
     21 N21        -8.5021  -11.3254   39.2513 N.2       1 UNK        -0.3551 
     22 N22        -7.8300  -12.5214   39.0765 N.pl3     1 UNK        -0.2441 
     23 N23        -9.8270   -9.0286   39.2110 N.am      1 UNK        -0.3850 
     24 O24        -8.3473  -10.9558   42.8052 O.2       1 UNK        -0.4700 
     25 O25        -9.6974   -8.8294   41.4702 O.2       1 UNK        -0.5000 
     26 O26       -10.0534   -8.7024   36.5985 O.3       1 UNK        -0.2850 
     27 H27       -12.2130   -5.0751   39.7929 H         1 UNK         0.1150 
     28 H28       -12.4238   -4.7908   37.3299 H         1 UNK         0.1150 
     29 H29        -7.5234  -16.0868   36.1328 H         1 UNK         0.1150 
     30 H30        -7.9405  -12.1242   34.4752 H         1 UNK         0.1150 
     31 H31        -7.6008  -15.1590   38.3980 H         1 UNK         0.1150 
     32 H32        -7.9977  -11.1758   36.7425 H         1 UNK         0.1150 
     33 H33       -11.0257   -7.0128   40.7213 H         1 UNK         0.1150 
     34 H34       -11.4478   -6.4386   35.8016 H         1 UNK         0.1150 
     35 H35        -7.0162  -13.1534   42.3180 H         1 UNK         0.1150 
     36 H36        -6.7321  -14.0504   40.0208 H         1 UNK         0.1150 
     37 H37        -8.6763  -14.7035   33.2895 H         1 UNK         0.0600 
     38 H38        -6.9969  -14.1793   33.1105 H         1 UNK         0.0600 
     39 H39        -7.3553  -15.7864   33.7430 H         1 UNK         0.0600 
     40 H40       -11.7196  -10.2092   35.1225 H         1 UNK         0.0600 
     41 H41       -12.3787   -8.5782   35.1316 H         1 UNK         0.0600 
     42 H42       -11.6472   -9.2218   33.6656 H         1 UNK         0.0600 
     43 H43        -9.9880   -7.6726   34.7767 H         1 UNK         0.0300 
     44 H44        -9.4209   -9.3121   34.7687 H         1 UNK         0.0300 
     45 H45        -9.5394   -9.6398   38.4569 H         1 UNK         0.3000 
@<TRIPOS>BOND
     1    1    2 ar   
     2    1    7 ar   
     3    1   27 1    
     4    2    8 ar   
     5    2   28 1    
     6    3    5 ar   
     7    3    9 ar   
     8    3   29 1    
     9    4    6 ar   
    10    4    9 ar   
    11    4   30 1    
    12    5   10 ar   
    13    5   31 1    
    14    6   10 ar   
    15    6   32 1    
    16    7   11 ar   
    17    7   33 1    
    18    8   12 ar   
    19    8   34 1    
    20    9   18 1    
    21   10   22 1    
    22   11   12 ar   
    23   11   23 1    
    24   12   26 1    
    25   13   14 ar   
    26   13   15 ar   
    27   13   35 1    
    28   14   22 ar   
    29   14   36 1    
    30   15   16 ar   
    31   15   24 2    
    32   16   17 1    
    33   16   21 ar   
    34   17   23 am   BACKBONE|DICT|INTERRES
    35   17   25 2    
    36   18   37 1    
    37   18   38 1    
    38   18   39 1    
    39   19   20 1    
    40   19   40 1    
    41   19   41 1    
    42   19   42 1    
    43   20   26 1    
    44   20   43 1    
    45   20   44 1    
    46   21   22 ar   
    47   23   45 1    
@<TRIPOS>SUBSTRUCTURE
     1 UNK         1 GROUP             0       ****    0 ROOT    
@<TRIPOS>MOLECULE
ZINC09205622_114
46   48    1
SMALL
USER_CHARGES


@<TRIPOS>ATOM
      1 C1        -11.3056   -5.6876   38.9333 C.ar      1 UNK        -0.1150 
      2 C2        -11.4118   -5.5741   37.5358 C.ar      1 UNK        -0.1150 
      3 C3         -7.6472  -14.5676   37.5972 C.ar      1 UNK        -0.1150 
      4 C4         -7.5195  -12.3085   36.7069 C.ar      1 UNK        -0.1150 
      5 C5        -10.7035   -6.8242   39.5031 C.ar      1 UNK        -0.1150 
      6 C6        -10.9152   -6.5963   36.7048 C.ar      1 UNK        -0.1150 
      7 C7         -7.5340  -15.0879   36.2926 C.ar      1 UNK        -0.1150 
      8 C8         -7.4024  -12.8300   35.4048 C.ar      1 UNK        -0.1150 
      9 C9         -7.6382  -13.1718   37.8197 C.ar      1 UNK         0.2000 
     10 C10       -10.2046   -7.8544   38.6716 C.ar      1 UNK         0.0850 
     11 C11        -7.4099  -14.2195   35.1807 C.ar      1 UNK         0.0850 
     12 C12       -10.3071   -7.7473   37.2656 C.ar      1 UNK         0.0850 
     13 C13        -7.6431  -12.8379   41.5378 C.ar      1 UNK        -0.1150 
     14 C14        -7.4092  -13.3190   40.3046 C.ar      1 UNK         0.0075 
     15 C15        -8.3132  -11.5345   41.7027 C.ar      1 UNK         0.4700 
     16 C16        -8.6600  -10.8346   40.4143 C.ar      1 UNK         0.4529 
     17 C17        -9.3336   -9.4870   40.3950 C.2       1 UNK         0.3238 
     18 C18       -11.3569   -9.2622   34.7175 C.3       1 UNK        -0.1800 
     19 C19        -7.3428  -16.0352   33.6123 C.3       1 UNK         0.1100 
     20 C20        -9.9433   -8.8126   35.1115 C.3       1 UNK         0.1400 
     21 N21        -8.3814  -11.3958   39.2680 N.2       1 UNK        -0.3551 
     22 N22        -7.7728  -12.6295   39.1341 N.pl3     1 UNK        -0.2441 
     23 N23        -9.5882   -9.0388   39.1481 N.am      1 UNK        -0.3850 
     24 O24        -8.5512  -11.0911   42.8273 O.2       1 UNK        -0.4700 
     25 O25        -9.6224   -8.8579   41.4127 O.2       1 UNK        -0.5000 
     26 O26        -7.2978  -14.6402   33.8742 O.3       1 UNK        -0.2850 
     27 O27        -9.7895   -8.7966   36.5259 O.3       1 UNK        -0.2850 
     28 H28       -11.6854   -4.9042   39.5732 H         1 UNK         0.1150 
     29 H29       -11.8747   -4.7005   37.0999 H         1 UNK         0.1150 
     30 H30        -7.7657  -15.2597   38.4161 H         1 UNK         0.1150 
     31 H31        -7.5092  -11.2369   36.8416 H         1 UNK         0.1150 
     32 H32       -10.6374   -6.8834   40.5785 H         1 UNK         0.1150 
     33 H33       -11.0170   -6.4710   35.6389 H         1 UNK         0.1150 
     34 H34        -7.5519  -16.1599   36.1716 H         1 UNK         0.1150 
     35 H35        -7.3085  -12.1560   34.5660 H         1 UNK         0.1150 
     36 H36        -7.3412  -13.3747   42.4237 H         1 UNK         0.1150 
     37 H37        -6.8906  -14.2523   40.1422 H         1 UNK         0.1150 
     38 H38       -11.5780  -10.2465   35.1308 H         1 UNK         0.0600 
     39 H39       -12.1196   -8.5737   35.0800 H         1 UNK         0.0600 
     40 H40       -11.4555   -9.3267   33.6337 H         1 UNK         0.0600 
     41 H41        -7.2569  -16.2027   32.5387 H         1 UNK         0.0300 
     42 H42        -8.2880  -16.4711   33.9386 H         1 UNK         0.0300 
     43 H43        -6.5163  -16.5590   34.0946 H         1 UNK         0.0300 
     44 H44        -9.6716   -7.8594   34.6572 H         1 UNK         0.0300 
     45 H45        -9.2265   -9.5352   34.7200 H         1 UNK         0.0300 
     46 H46        -9.2938   -9.6700   38.4130 H         1 UNK         0.3000 
@<TRIPOS>BOND
     1    1    2 ar   
     2    1    5 ar   
     3    1   28 1    
     4    2    6 ar   
     5    2   29 1    
     6    3    7 ar   
     7    3    9 ar   
     8    3   30 1    
     9    4    8 ar   
    10    4    9 ar   
    11    4   31 1    
    12    5   10 ar   
    13    5   32 1    
    14    6   12 ar   
    15    6   33 1    
    16    7   11 ar   
    17    7   34 1    
    18    8   11 ar   
    19    8   35 1    
    20    9   22 1    
    21   10   12 ar   
    22   10   23 1    
    23   11   26 1    
    24   12   27 1    
    25   13   14 ar   
    26   13   15 ar   
    27   13   36 1    
    28   14   22 ar   
    29   14   37 1    
    30   15   16 ar   
    31   15   24 2    
    32   16   17 1    
    33   16   21 ar   
    34   17   23 am   BACKBONE|DICT|INTERRES
    35   17   25 2    
    36   18   20 1    
    37   18   38 1    
    38   18   39 1    
    39   18   40 1    
    40   19   26 1    
    41   19   41 1    
    42   19   42 1    
    43   19   43 1    
    44   20   27 1    
    45   20   44 1    
    46   20   45 1    
    47   21   22 ar   
    48   23   46 1    
@<TRIPOS>SUBSTRUCTURE
     1 UNK         1 GROUP             0       ****    0 ROOT    
@<TRIPOS>MOLECULE
ZINC09205748_89
43   45    1
SMALL
USER_CHARGES


@<TRIPOS>ATOM
      1 C1         -7.8174  -12.8697   35.3449 C.ar      1 UNK        -0.1150 
      2 C2         -7.6295  -12.1646   36.5497 C.ar      1 UNK        -0.1150 
      3 C3        -10.8567   -5.0814   37.1927 C.ar      1 UNK        -0.1150 
      4 C4        -10.5771   -6.2239   36.4210 C.ar      1 UNK        -0.1150 
      5 C5         -7.8339  -14.2766   35.3487 C.ar      1 UNK        -0.1150 
      6 C6         -7.4787  -14.2710   37.7630 C.ar      1 UNK        -0.1150 
      7 C7         -9.8315   -6.1276   39.1316 C.ar      1 UNK        -0.1150 
      8 C8         -7.4509  -12.8560   37.7728 C.ar      1 UNK         0.2000 
      9 C9         -9.5463   -7.2805   38.3611 C.ar      1 UNK         0.0850 
     10 C10       -10.4904   -5.0174   38.5493 C.ar      1 UNK         0.0850 
     11 C11        -9.9183   -7.3352   36.9996 C.ar      1 UNK         0.0850 
     12 C12        -7.6670  -14.9752   36.5583 C.ar      1 UNK         0.1800 
     13 C13        -6.5826  -11.9939   41.3035 C.ar      1 UNK        -0.1150 
     14 C14        -6.6567  -12.6593   40.1381 C.ar      1 UNK         0.0075 
     15 C15        -7.1601  -10.6422   41.4152 C.ar      1 UNK         0.4700 
     16 C16        -7.7730  -10.1099   40.1460 C.ar      1 UNK         0.4529 
     17 C17        -8.3806   -8.7330   40.0739 C.2       1 UNK         0.3238 
     18 C18       -10.4407   -3.7590   40.5930 C.3       1 UNK         0.1100 
     19 C19        -9.9898   -8.5837   34.9457 C.3       1 UNK         0.1100 
     20 N20        -7.7894  -10.8456   39.0662 N.2       1 UNK        -0.3551 
     21 N21        -7.2677  -12.1246   38.9886 N.pl3     1 UNK        -0.2441 
     22 N22        -8.8961   -8.4390   38.8616 N.am      1 UNK        -0.3850 
     23 O23        -7.1204  -10.0311   42.4844 O.2       1 UNK        -0.4700 
     24 O24        -8.4015   -7.9516   41.0244 O.2       1 UNK        -0.5000 
     25 O25       -10.8068   -3.8579   39.2235 O.3       1 UNK        -0.2850 
     26 O26        -9.6075   -8.4921   36.3100 O.3       1 UNK        -0.2850 
     27 Cl27       -7.6973  -16.6996   36.5669 Cl        1 UNK        -0.1800 
     28 H28        -7.9480  -12.3296   34.4185 H         1 UNK         0.1150 
     29 H29        -7.6157  -11.0844   36.5217 H         1 UNK         0.1150 
     30 H30       -11.3600   -4.2394   36.7406 H         1 UNK         0.1150 
     31 H31       -10.8802   -6.2192   35.3860 H         1 UNK         0.1150 
     32 H32        -7.9786  -14.8218   34.4269 H         1 UNK         0.1150 
     33 H33        -7.3780  -14.8411   38.6728 H         1 UNK         0.1150 
     34 H34        -9.5471   -6.0956   40.1693 H         1 UNK         0.1150 
     35 H35        -6.0950  -12.4160   42.1686 H         1 UNK         0.1150 
     36 H36        -6.2119  -13.6351   40.0116 H         1 UNK         0.1150 
     37 H37       -10.7535   -2.7895   40.9800 H         1 UNK         0.0300 
     38 H38        -9.3600   -3.8330   40.7236 H         1 UNK         0.0300 
     39 H39       -10.9305   -4.5266   41.1939 H         1 UNK         0.0300 
     40 H40        -9.6836   -9.5526   34.5516 H         1 UNK         0.0300 
     41 H41        -9.5050   -7.8145   34.3429 H         1 UNK         0.0300 
     42 H42       -11.0719   -8.5076   34.8291 H         1 UNK         0.0300 
     43 H43        -8.7977   -9.1807   38.1797 H         1 UNK         0.3000 
@<TRIPOS>BOND
     1    1    2 ar   
     2    1    5 ar   
     3    1   28 1    
     4    2    8 ar   
     5    2   29 1    
     6    3    4 ar   
     7    3   10 ar   
     8    3   30 1    
     9    4   11 ar   
    10    4   31 1    
    11    5   12 ar   
    12    5   32 1    
    13    6    8 ar   
    14    6   12 ar   
    15    6   33 1    
    16    7    9 ar   
    17    7   10 ar   
    18    7   34 1    
    19    8   21 1    
    20    9   11 ar   
    21    9   22 1    
    22   10   25 1    
    23   11   26 1    
    24   12   27 1    
    25   13   14 ar   
    26   13   15 ar   
    27   13   35 1    
    28   14   21 ar   
    29   14   36 1    
    30   15   16 ar   
    31   15   23 2    
    32   16   17 1    
    33   16   20 ar   
    34   17   22 am   BACKBONE|DICT|INTERRES
    35   17   24 2    
    36   18   25 1    
    37   18   37 1    
    38   18   38 1    
    39   18   39 1    
    40   19   26 1    
    41   19   40 1    
    42   19   41 1    
    43   19   42 1    
    44   20   21 ar   
    45   22   43 1    
@<TRIPOS>SUBSTRUCTURE
     1 UNK         1 GROUP             0       ****    0 ROOT    
@<TRIPOS>MOLECULE
ZINC09289734_4
41   44    1
SMALL
USER_CHARGES


@<TRIPOS>ATOM
      1 C1         -6.5833   -3.7518   39.6329 C.ar      1 UNK        -0.1150 
      2 C2         -4.9435  -11.1251   37.5249 C.ar      1 UNK        -0.1150 
      3 C3         -4.4448   -8.9211   36.6051 C.ar      1 UNK        -0.1150 
      4 C4         -7.1203   -2.9044   38.6495 C.ar      1 UNK        -0.1150 
      5 C5         -4.7391  -11.6975   36.2533 C.ar      1 UNK        -0.1150 
      6 C6         -4.2421   -9.4971   35.3353 C.ar      1 UNK        -0.1150 
      7 C7         -7.4400   -5.6702   38.4179 C.ar      1 UNK        -0.1150 
      8 C8         -6.7370   -5.1460   39.5231 C.ar      1 UNK         0.0000 
      9 C9         -4.7921   -9.7306   37.7144 C.ar      1 UNK         0.0044 
     10 C10        -7.8182   -3.4169   37.5378 C.ar      1 UNK         0.0850 
     11 C11        -7.9780   -4.8308   37.4071 C.ar      1 UNK         0.0850 
     12 C12        -4.3883  -10.8850   35.1593 C.ar      1 UNK         0.2000 
     13 C13        -6.1615   -6.0224   40.5475 C.ar      1 UNK         0.4100 
     14 C14        -5.1920   -7.5941   41.5646 C.ar      1 UNK         0.5625 
     15 C15        -5.0247   -9.1148   39.0516 C.2       1 UNK         0.3492 
     16 C16        -4.8844   -9.9489   40.3309 C.3       1 UNK         0.0836 
     17 C17        -9.1264   -2.7869   35.5839 C.3       1 UNK         0.1100 
     18 C18        -8.7123   -6.7611   36.1458 C.3       1 UNK         0.1100 
     19 N19        -6.1524   -5.6907   41.8463 N.2       1 UNK        -0.3633 
     20 N20        -5.5182   -6.7203   42.5120 N.2       1 UNK        -0.3633 
     21 N21        -5.3615   -7.8845   39.1131 N.2       1 UNK        -0.3897 
     22 N22        -5.5720   -7.2214   40.3289 N.pl3     1 UNK        -0.0934 
     23 O23        -8.2760   -2.4462   36.6668 O.3       1 UNK        -0.2850 
     24 O24        -8.6389   -5.3518   36.3116 O.3       1 UNK        -0.2850 
     25 S25        -4.3235   -9.0922   41.8338 S.3       1 UNK        -0.3200 
     26 Br26       -4.1184  -11.6620   33.4452 Br        1 UNK        -0.2000 
     27 H27        -6.0518   -3.3298   40.4746 H         1 UNK         0.1150 
     28 H28        -5.2271  -11.7738   38.3406 H         1 UNK         0.1150 
     29 H29        -4.3287   -7.8518   36.7183 H         1 UNK         0.1150 
     30 H30        -6.9968   -1.8358   38.7476 H         1 UNK         0.1150 
     31 H31        -4.8553  -12.7621   36.1106 H         1 UNK         0.1150 
     32 H32        -3.9755   -8.8747   34.4934 H         1 UNK         0.1150 
     33 H33        -7.5577   -6.7396   38.3686 H         1 UNK         0.1150 
     34 H34        -5.8540  -10.3980   40.5461 H         1 UNK         0.0600 
     35 H35        -4.1885  -10.7691   40.1584 H         1 UNK         0.0600 
     36 H36        -9.4594   -1.8726   35.0930 H         1 UNK         0.0300 
     37 H37       -10.0183   -3.3161   35.9218 H         1 UNK         0.0300 
     38 H38        -8.6002   -3.3809   34.8359 H         1 UNK         0.0300 
     39 H39        -9.2292   -6.9841   35.2124 H         1 UNK         0.0300 
     40 H40        -9.2779   -7.2303   36.9519 H         1 UNK         0.0300 
     41 H41        -7.7196   -7.2103   36.0865 H         1 UNK         0.0300 
@<TRIPOS>BOND
     1    1    4 ar   
     2    1    8 ar   
     3    1   27 1    
     4    2    5 ar   
     5    2    9 ar   
     6    2   28 1    
     7    3    6 ar   
     8    3    9 ar   
     9    3   29 1    
    10    4   10 ar   
    11    4   30 1    
    12    5   12 ar   
    13    5   31 1    
    14    6   12 ar   
    15    6   32 1    
    16    7    8 ar   
    17    7   11 ar   
    18    7   33 1    
    19    8   13 1    
    20    9   15 1    
    21   10   11 ar   
    22   10   23 1    
    23   11   24 1    
    24   12   26 1    
    25   13   19 ar   
    26   13   22 ar   
    27   14   20 ar   
    28   14   22 ar   
    29   14   25 1    
    30   15   16 1    
    31   15   21 2    
    32   16   25 1    
    33   16   34 1    
    34   16   35 1    
    35   17   23 1    
    36   17   36 1    
    37   17   37 1    
    38   17   38 1    
    39   18   24 1    
    40   18   39 1    
    41   18   40 1    
    42   18   41 1    
    43   19   20 ar   
    44   21   22 1    
@<TRIPOS>SUBSTRUCTURE
     1 UNK         1 GROUP             0       ****    0 ROOT    
@<TRIPOS>MOLECULE
ZINC09289840_15
45   48    1
SMALL
USER_CHARGES


@<TRIPOS>ATOM
      1 C1         -3.9088   -9.1659   35.3347 C.ar      1 UNK        -0.1150 
      2 C2         -6.7766   -3.8206   39.8276 C.ar      1 UNK        -0.1150 
      3 C3         -4.2287   -8.6840   36.6174 C.ar      1 UNK        -0.1150 
      4 C4         -3.9866  -10.5433   35.0557 C.ar      1 UNK        -0.1150 
      5 C5         -7.2654   -2.9207   38.8659 C.ar      1 UNK        -0.1150 
      6 C6         -7.4670   -5.6712   38.4170 C.ar      1 UNK        -0.1150 
      7 C7         -4.7125  -10.9601   37.3417 C.ar      1 UNK        -0.1150 
      8 C8         -6.8714   -5.2072   39.6089 C.ar      1 UNK         0.0000 
      9 C9         -4.6272   -9.5800   37.6364 C.ar      1 UNK         0.0044 
     10 C10        -4.3924  -11.4542   36.0616 C.ar      1 UNK         0.0850 
     11 C11        -7.8573   -3.3727   37.6697 C.ar      1 UNK         0.0850 
     12 C12        -7.9527   -4.7772   37.4268 C.ar      1 UNK         0.0850 
     13 C13        -6.3421   -6.1376   40.6106 C.ar      1 UNK         0.4100 
     14 C14        -5.3897   -7.7463   41.5852 C.ar      1 UNK         0.5625 
     15 C15        -4.9787   -9.0723   38.9910 C.2       1 UNK         0.3492 
     16 C16        -4.8920   -9.9923   40.2149 C.3       1 UNK         0.0836 
     17 C17        -4.1581  -13.3508   34.6089 C.3       1 UNK         0.1100 
     18 C18        -9.1095   -2.6436   35.7175 C.3       1 UNK         0.1100 
     19 C19        -8.4920   -6.6293   35.9672 C.3       1 UNK         0.1100 
     20 N20        -6.4403   -5.9007   41.9264 N.2       1 UNK        -0.3633 
     21 N21        -5.8172   -6.9547   42.5643 N.2       1 UNK        -0.3633 
     22 N22        -5.3701   -7.8627   39.1139 N.2       1 UNK        -0.3897 
     23 N23        -5.6935   -7.2978   40.3539 N.pl3     1 UNK        -0.0934 
     24 O24        -4.5026  -12.8148   35.8785 O.3       1 UNK        -0.2850 
     25 O25        -8.2808   -2.3582   36.8326 O.3       1 UNK        -0.2850 
     26 O26        -8.4971   -5.2354   36.2428 O.3       1 UNK        -0.2850 
     27 S27        -4.4834   -9.2285   41.8145 S.3       1 UNK        -0.3200 
     28 H28        -3.6017   -8.4754   34.5622 H         1 UNK         0.1150 
     29 H29        -6.3272   -3.4448   40.7361 H         1 UNK         0.1150 
     30 H30        -4.1618   -7.6220   36.8119 H         1 UNK         0.1150 
     31 H31        -3.7324  -10.8748   34.0604 H         1 UNK         0.1150 
     32 H32        -7.1888   -1.8586   39.0469 H         1 UNK         0.1150 
     33 H33        -7.5411   -6.7374   38.2829 H         1 UNK         0.1150 
     34 H34        -5.0330  -11.6693   38.0903 H         1 UNK         0.1150 
     35 H35        -5.8515  -10.4980   40.3231 H         1 UNK         0.0600 
     36 H36        -4.1466  -10.7670   40.0366 H         1 UNK         0.0600 
     37 H37        -4.2858  -14.4332   34.6280 H         1 UNK         0.0300 
     38 H38        -3.1158  -13.1472   34.3598 H         1 UNK         0.0300 
     39 H39        -4.8021  -12.9574   33.8213 H         1 UNK         0.0300 
     40 H40        -9.4720   -1.7061   35.2964 H         1 UNK         0.0300 
     41 H41        -9.9837   -3.2309   36.0018 H         1 UNK         0.0300 
     42 H42        -8.5548   -3.1573   34.9317 H         1 UNK         0.0300 
     43 H43        -8.9055   -6.7980   34.9730 H         1 UNK         0.0300 
     44 H44        -9.1115   -7.1786   36.6772 H         1 UNK         0.0300 
     45 H45        -7.4799   -7.0369   35.9744 H         1 UNK         0.0300 
@<TRIPOS>BOND
     1    1    3 ar   
     2    1    4 ar   
     3    1   28 1    
     4    2    5 ar   
     5    2    8 ar   
     6    2   29 1    
     7    3    9 ar   
     8    3   30 1    
     9    4   10 ar   
    10    4   31 1    
    11    5   11 ar   
    12    5   32 1    
    13    6    8 ar   
    14    6   12 ar   
    15    6   33 1    
    16    7    9 ar   
    17    7   10 ar   
    18    7   34 1    
    19    8   13 1    
    20    9   15 1    
    21   10   24 1    
    22   11   12 ar   
    23   11   25 1    
    24   12   26 1    
    25   13   20 ar   
    26   13   23 ar   
    27   14   21 ar   
    28   14   23 ar   
    29   14   27 1    
    30   15   16 1    
    31   15   22 2    
    32   16   27 1    
    33   16   35 1    
    34   16   36 1    
    35   17   24 1    
    36   17   37 1    
    37   17   38 1    
    38   17   39 1    
    39   18   25 1    
    40   18   40 1    
    41   18   41 1    
    42   18   42 1    
    43   19   26 1    
    44   19   43 1    
    45   19   44 1    
    46   19   45 1    
    47   20   21 ar   
    48   22   23 1    
@<TRIPOS>SUBSTRUCTURE
     1 UNK         1 GROUP             0       ****    0 ROOT    
@<TRIPOS>MOLECULE
ZINC09289845_4
44   47    1
SMALL
USER_CHARGES


@<TRIPOS>ATOM
      1 C1         -6.6578   -3.7405   39.6971 C.ar      1 UNK        -0.1150 
      2 C2         -4.9329  -11.0597   37.4787 C.ar      1 UNK        -0.1150 
      3 C3         -4.4041   -8.8482   36.5977 C.ar      1 UNK        -0.1150 
      4 C4         -4.7210  -11.6165   36.2021 C.ar      1 UNK        -0.1150 
      5 C5         -4.1929   -9.4064   35.3223 C.ar      1 UNK        -0.1150 
      6 C6         -7.1943   -2.8841   38.7212 C.ar      1 UNK        -0.1150 
      7 C7         -7.4421   -5.6500   38.4217 C.ar      1 UNK        -0.1150 
      8 C8         -6.7752   -5.1353   39.5535 C.ar      1 UNK         0.0000 
      9 C9         -4.7695   -9.6706   37.6899 C.ar      1 UNK         0.0044 
     10 C10        -4.3475  -10.7922   35.1220 C.ar      1 UNK        -0.1150 
     11 C11        -7.8550   -3.3878   37.5831 C.ar      1 UNK         0.0850 
     12 C12        -7.9740   -4.8014   37.4158 C.ar      1 UNK         0.0850 
     13 C13        -6.1968   -6.0213   40.5689 C.ar      1 UNK         0.4100 
     14 C14        -5.2138   -7.5962   41.5687 C.ar      1 UNK         0.5625 
     15 C15        -5.0093   -9.0746   39.0333 C.2       1 UNK         0.3492 
     16 C16        -4.8602   -9.9268   40.2990 C.3       1 UNK         0.0836 
     17 C17        -4.1230  -11.3902   33.7486 C.3       1 UNK        -0.0650 
     18 C18        -9.1776   -2.7453   35.6456 C.3       1 UNK         0.1100 
     19 C19        -8.5712   -6.7165   36.0649 C.3       1 UNK         0.1100 
     20 N20        -6.2041   -5.7114   41.8734 N.2       1 UNK        -0.3633 
     21 N21        -5.5611   -6.7431   42.5275 N.2       1 UNK        -0.3633 
     22 N22        -5.3594   -7.8487   39.1123 N.2       1 UNK        -0.3897 
     23 N23        -5.5883   -7.2082   40.3364 N.pl3     1 UNK        -0.0934 
     24 O24        -8.3171   -2.4104   36.7222 O.3       1 UNK        -0.2850 
     25 O25        -8.5878   -5.3133   36.2892 O.3       1 UNK        -0.2850 
     26 S26        -4.3264   -9.0862   41.8215 S.3       1 UNK        -0.3200 
     27 H27        -6.1548   -3.3251   40.5591 H         1 UNK         0.1150 
     28 H28        -5.2316  -11.7158   38.2828 H         1 UNK         0.1150 
     29 H29        -4.2803   -7.7821   36.7296 H         1 UNK         0.1150 
     30 H30        -4.8504  -12.6793   36.0547 H         1 UNK         0.1150 
     31 H31        -3.9122   -8.7642   34.4994 H         1 UNK         0.1150 
     32 H32        -7.0993   -1.8153   38.8448 H         1 UNK         0.1150 
     33 H33        -7.5357   -6.7202   38.3456 H         1 UNK         0.1150 
     34 H34        -5.8215  -10.3996   40.4998 H         1 UNK         0.0600 
     35 H35        -4.1475  -10.7299   40.1139 H         1 UNK         0.0600 
     36 H36        -5.0482  -11.3666   33.1725 H         1 UNK         0.0600 
     37 H37        -3.3631  -10.8321   33.2009 H         1 UNK         0.0600 
     38 H38        -3.7899  -12.4259   33.8220 H         1 UNK         0.0600 
     39 H39        -9.5415   -1.8274   35.1843 H         1 UNK         0.0300 
     40 H40       -10.0502   -3.3049   35.9850 H         1 UNK         0.0300 
     41 H41        -8.6512   -3.3064   34.8730 H         1 UNK         0.0300 
     42 H42        -9.0224   -6.9290   35.0959 H         1 UNK         0.0300 
     43 H43        -9.1526   -7.2473   36.8200 H         1 UNK         0.0300 
     44 H44        -7.5535   -7.1099   36.0452 H         1 UNK         0.0300 
@<TRIPOS>BOND
     1    1    6 ar   
     2    1    8 ar   
     3    1   27 1    
     4    2    4 ar   
     5    2    9 ar   
     6    2   28 1    
     7    3    5 ar   
     8    3    9 ar   
     9    3   29 1    
    10    4   10 ar   
    11    4   30 1    
    12    5   10 ar   
    13    5   31 1    
    14    6   11 ar   
    15    6   32 1    
    16    7    8 ar   
    17    7   12 ar   
    18    7   33 1    
    19    8   13 1    
    20    9   15 1    
    21   10   17 1    
    22   11   12 ar   
    23   11   24 1    
    24   12   25 1    
    25   13   20 ar   
    26   13   23 ar   
    27   14   21 ar   
    28   14   23 ar   
    29   14   26 1    
    30   15   16 1    
    31   15   22 2    
    32   16   26 1    
    33   16   34 1    
    34   16   35 1    
    35   17   36 1    
    36   17   37 1    
    37   17   38 1    
    38   18   24 1    
    39   18   39 1    
    40   18   40 1    
    41   18   41 1    
    42   19   25 1    
    43   19   42 1    
    44   19   43 1    
    45   19   44 1    
    46   20   21 ar   
    47   22   23 1    
@<TRIPOS>SUBSTRUCTURE
     1 UNK         1 GROUP             0       ****    0 ROOT    
@<TRIPOS>MOLECULE
ZINC09289855_31
38   41    1
SMALL
USER_CHARGES


@<TRIPOS>ATOM
      1 C1        -15.5719  -22.9159   36.0423 C.2       1 UNK        -0.0738 
      2 C2        -19.3738  -17.5369   38.1897 C.ar      1 UNK        -0.1150 
      3 C3        -19.9530  -16.7651   37.1694 C.ar      1 UNK        -0.1150 
      4 C4        -15.3700  -22.3674   37.3437 C.2       1 UNK        -0.0738 
      5 C5        -18.4796  -15.5111   39.1846 C.ar      1 UNK        -0.1150 
      6 C6        -16.6442  -22.3646   35.3941 C.2       1 UNK        -0.3255 
      7 C7        -18.6267  -16.9132   39.2063 C.ar      1 UNK         0.0000 
      8 C8        -19.8104  -15.3636   37.1343 C.ar      1 UNK         0.0850 
      9 C9        -19.0602  -14.7138   38.1627 C.ar      1 UNK         0.0850 
     10 C10       -16.2915  -21.4049   37.6847 C.2       1 UNK        -0.0637 
     11 C11       -18.0046  -17.6914   40.2804 C.ar      1 UNK         0.4100 
     12 C12       -17.0105  -19.1752   41.3992 C.ar      1 UNK         0.5625 
     13 C13       -16.3962  -20.6285   38.9206 C.2       1 UNK         0.3536 
     14 C14       -15.5007  -20.9660   40.1174 C.3       1 UNK         0.0836 
     15 C15       -20.4180  -13.3569   35.8951 C.3       1 UNK         0.1100 
     16 C16       -18.2139  -12.7016   39.2049 C.3       1 UNK         0.1100 
     17 N17       -17.9662  -17.2540   41.5475 N.2       1 UNK        -0.3633 
     18 N18       -17.3235  -18.2309   42.2817 N.2       1 UNK        -0.3633 
     19 N19       -17.2187  -19.6538   38.9807 N.2       1 UNK        -0.3897 
     20 N20       -17.3948  -18.8912   40.1418 N.pl3     1 UNK        -0.0934 
     21 O21       -20.4446  -14.7650   36.0617 O.3       1 UNK        -0.2850 
     22 O22       -18.9108  -13.3407   38.1443 O.3       1 UNK        -0.2850 
     23 S23       -17.4294  -21.1577   36.3734 S.3       1 UNK         0.0328 
     24 S24       -16.1824  -20.6726   41.7777 S.3       1 UNK        -0.3200 
     25 H25       -14.9300  -23.6834   35.6328 H         1 UNK         0.1211 
     26 H26       -19.5106  -18.6084   38.1889 H         1 UNK         0.1150 
     27 H27       -20.5229  -17.2551   36.3940 H         1 UNK         0.1150 
     28 H28       -14.5562  -22.7014   37.9706 H         1 UNK         0.1211 
     29 H29       -17.9023  -15.0689   39.9817 H         1 UNK         0.1150 
     30 H30       -17.0225  -22.5863   34.4055 H         1 UNK         0.2618 
     31 H31       -15.2079  -22.0140   40.0763 H         1 UNK         0.0600 
     32 H32       -14.5853  -20.3814   40.0244 H         1 UNK         0.0600 
     33 H33       -20.8841  -12.8437   36.7369 H         1 UNK         0.0300 
     34 H34       -20.9866  -13.0956   35.0029 H         1 UNK         0.0300 
     35 H35       -19.4014  -12.9897   35.7491 H         1 UNK         0.0300 
     36 H36       -18.2323  -11.6236   39.0457 H         1 UNK         0.0300 
     37 H37       -17.1682  -13.0098   39.2390 H         1 UNK         0.0300 
     38 H38       -18.6838  -12.8976   40.1698 H         1 UNK         0.0300 
@<TRIPOS>BOND
     1    1    4 1    
     2    1    6 2    
     3    1   25 1    
     4    2    3 ar   
     5    2    7 ar   
     6    2   26 1    
     7    3    8 ar   
     8    3   27 1    
     9    4   10 2    
    10    4   28 1    
    11    5    7 ar   
    12    5    9 ar   
    13    5   29 1    
    14    6   23 1    
    15    6   30 1    
    16    7   11 1    
    17    8    9 ar   
    18    8   21 1    
    19    9   22 1    
    20   10   13 1    
    21   10   23 1    
    22   11   17 ar   
    23   11   20 ar   
    24   12   18 ar   
    25   12   20 ar   
    26   12   24 1    
    27   13   14 1    
    28   13   19 2    
    29   14   24 1    
    30   14   31 1    
    31   14   32 1    
    32   15   21 1    
    33   15   33 1    
    34   15   34 1    
    35   15   35 1    
    36   16   22 1    
    37   16   36 1    
    38   16   37 1    
    39   16   38 1    
    40   17   18 ar   
    41   19   20 1    
@<TRIPOS>SUBSTRUCTURE
     1 UNK         1 GROUP             0       ****    0 ROOT    
@<TRIPOS>MOLECULE
ZINC09289894_22
47   51    1
SMALL
USER_CHARGES


@<TRIPOS>ATOM
      1 C1         -8.0729   -6.1944   38.0907 C.ar      1 UNK        -0.1150 
      2 C2         -4.4439   -9.0513   36.5357 C.ar      1 UNK        -0.1150 
      3 C3         -4.0558   -9.5738   35.2870 C.ar      1 UNK        -0.1150 
      4 C4         -8.6250   -5.3793   37.0890 C.ar      1 UNK        -0.1150 
      5 C5         -7.5330   -4.2093   39.3801 C.ar      1 UNK        -0.1150 
      6 C6         -4.9743  -11.3018   37.3134 C.ar      1 UNK        -0.1150 
      7 C7         -7.5127   -5.6129   39.2441 C.ar      1 UNK         0.0000 
      8 C8         -4.9063   -9.9113   37.5595 C.ar      1 UNK         0.0044 
      9 C9         -4.1317  -10.9570   35.0425 C.ar      1 UNK         0.0850 
     10 C10        -4.5754  -11.8288   36.0706 C.ar      1 UNK         0.0850 
     11 C11        -8.6339   -3.9754   37.2061 C.ar      1 UNK         0.0850 
     12 C12        -8.0923   -3.3698   38.3806 C.ar      1 UNK         0.0850 
     13 C13        -6.9174   -6.4356   40.3009 C.ar      1 UNK         0.4100 
     14 C14        -5.8674   -7.9148   41.3756 C.ar      1 UNK         0.5625 
     15 C15        -5.3371   -9.3555   38.8699 C.2       1 UNK         0.3492 
     16 C16        -5.2413  -10.2018   40.1443 C.3       1 UNK         0.0836 
     17 C17        -4.2083  -12.7621   33.5346 C.3       1 UNK         0.1400 
     18 C18        -3.9099  -13.6582   34.7465 C.3       1 UNK         0.1400 
     19 C19        -9.0160   -1.9277   35.9567 C.3       1 UNK         0.1100 
     20 C20        -7.6387   -1.4087   39.7202 C.3       1 UNK         0.1100 
     21 N21        -7.0432   -6.1278   41.6000 N.2       1 UNK        -0.3633 
     22 N22        -6.3561   -7.0972   42.3034 N.2       1 UNK        -0.3633 
     23 N23        -5.7994   -8.1657   38.9154 N.2       1 UNK        -0.3897 
     24 N24        -6.1828   -7.5572   40.1174 N.pl3     1 UNK        -0.0934 
     25 O25        -3.7711  -11.4347   33.8039 O.3       1 UNK        -0.2850 
     26 O26        -4.6346  -13.1902   35.8794 O.3       1 UNK        -0.2850 
     27 O27        -9.2048   -3.3231   36.1304 O.3       1 UNK        -0.2850 
     28 O28        -8.1346   -1.9969   38.5257 O.3       1 UNK        -0.2850 
     29 S29        -4.8775   -9.3257   41.6964 S.3       1 UNK        -0.3200 
     30 H30        -8.0857   -7.2670   37.9677 H         1 UNK         0.1150 
     31 H31        -4.3866   -7.9838   36.6984 H         1 UNK         0.1150 
     32 H32        -3.7112   -8.9105   34.5072 H         1 UNK         0.1150 
     33 H33        -9.0475   -5.8361   36.2061 H         1 UNK         0.1150 
     34 H34        -7.1066   -3.7991   40.2824 H         1 UNK         0.1150 
     35 H35        -5.3326  -11.9860   38.0680 H         1 UNK         0.1150 
     36 H36        -6.1887  -10.7258   40.2712 H         1 UNK         0.0600 
     37 H37        -4.4742  -10.9657   40.0200 H         1 UNK         0.0600 
     38 H38        -3.6890  -13.1318   32.6504 H         1 UNK         0.0300 
     39 H39        -5.2751  -12.7611   33.3062 H         1 UNK         0.0300 
     40 H40        -4.2035  -14.6874   34.5399 H         1 UNK         0.0300 
     41 H41        -2.8415  -13.6650   34.9682 H         1 UNK         0.0300 
     42 H42        -9.3526   -1.6466   34.9591 H         1 UNK         0.0300 
     43 H43        -7.9648   -1.6473   36.0355 H         1 UNK         0.0300 
     44 H44        -9.6082   -1.3539   36.6701 H         1 UNK         0.0300 
     45 H45        -7.7750   -0.3285   39.6698 H         1 UNK         0.0300 
     46 H46        -6.5720   -1.5985   39.8459 H         1 UNK         0.0300 
     47 H47        -8.1789   -1.7662   40.5980 H         1 UNK         0.0300 
@<TRIPOS>BOND
     1    1    4 ar   
     2    1    7 ar   
     3    1   30 1    
     4    2    3 ar   
     5    2    8 ar   
     6    2   31 1    
     7    3    9 ar   
     8    3   32 1    
     9    4   11 ar   
    10    4   33 1    
    11    5    7 ar   
    12    5   12 ar   
    13    5   34 1    
    14    6    8 ar   
    15    6   10 ar   
    16    6   35 1    
    17    7   13 1    
    18    8   15 1    
    19    9   10 ar   
    20    9   25 1    
    21   10   26 1    
    22   11   12 ar   
    23   11   27 1    
    24   12   28 1    
    25   13   21 ar   
    26   13   24 ar   
    27   14   22 ar   
    28   14   24 ar   
    29   14   29 1    
    30   15   16 1    
    31   15   23 2    
    32   16   29 1    
    33   16   36 1    
    34   16   37 1    
    35   17   18 1    
    36   17   25 1    
    37   17   38 1    
    38   17   39 1    
    39   18   26 1    
    40   18   40 1    
    41   18   41 1    
    42   19   27 1    
    43   19   42 1    
    44   19   43 1    
    45   19   44 1    
    46   20   28 1    
    47   20   45 1    
    48   20   46 1    
    49   20   47 1    
    50   21   22 ar   
    51   23   24 1    
@<TRIPOS>SUBSTRUCTURE
     1 UNK         1 GROUP             0       ****    0 ROOT    
@<TRIPOS>MOLECULE
ZINC09290213_17
41   44    1
SMALL
USER_CHARGES


@<TRIPOS>ATOM
      1 C1         -9.8624   -5.9646   38.5963 C.ar      1 UNK        -0.1150 
      2 C2         -6.3408  -12.3106   35.3140 C.ar      1 UNK        -0.1150 
      3 C3         -9.2540   -6.7665   39.5797 C.ar      1 UNK        -0.1150 
      4 C4         -6.6098  -11.7437   36.5736 C.ar      1 UNK        -0.1150 
      5 C5        -10.4919   -6.5655   37.4906 C.ar      1 UNK        -0.1150 
      6 C6         -6.3763  -13.7073   35.1434 C.ar      1 UNK        -0.1150 
      7 C7         -9.9195   -8.7657   38.3560 C.ar      1 UNK        -0.1150 
      8 C8         -6.9571  -13.9740   37.4926 C.ar      1 UNK        -0.1150 
      9 C9         -9.2732   -8.1733   39.4648 C.ar      1 UNK         0.0000 
     10 C10        -6.9142  -12.5730   37.6778 C.ar      1 UNK         0.0044 
     11 C11       -10.5282   -7.9671   37.3565 C.ar      1 UNK         0.0850 
     12 C12        -6.6871  -14.5525   36.2366 C.ar      1 UNK         0.0850 
     13 C13        -8.6221   -8.9917   40.4918 C.ar      1 UNK         0.4100 
     14 C14        -7.5196  -10.4687   41.5157 C.ar      1 UNK         0.5625 
     15 C15        -7.2118  -11.9763   39.0088 C.2       1 UNK         0.3492 
     16 C16        -7.0067  -12.7914   40.2916 C.3       1 UNK         0.0836 
     17 C17       -11.1945   -9.8798   36.0672 C.3       1 UNK         0.1100 
     18 C18        -6.4648  -16.5443   34.9155 C.3       1 UNK         0.1100 
     19 N19        -8.6441   -8.6563   41.7900 N.2       1 UNK        -0.3633 
     20 N20        -7.9227   -9.6241   42.4599 N.2       1 UNK        -0.3633 
     21 N21        -7.6547  -10.7794   39.0649 N.2       1 UNK        -0.3897 
     22 N22        -7.9277  -10.1342   40.2781 N.pl3     1 UNK        -0.0934 
     23 O23       -11.1645   -8.4709   36.2431 O.3       1 UNK        -0.2850 
     24 O24        -6.7493  -15.9263   36.1625 O.3       1 UNK        -0.2850 
     25 S25        -6.5240  -11.8842   41.7923 S.3       1 UNK        -0.3200 
     26 H26        -9.8451   -4.8886   38.6897 H         1 UNK         0.1150 
     27 H27        -6.1061  -11.6710   34.4751 H         1 UNK         0.1150 
     28 H28        -8.7697   -6.3017   40.4274 H         1 UNK         0.1150 
     29 H29        -6.5771  -10.6682   36.6846 H         1 UNK         0.1150 
     30 H30       -10.9554   -5.9465   36.7362 H         1 UNK         0.1150 
     31 H31        -6.1645  -14.1047   34.1625 H         1 UNK         0.1150 
     32 H32        -9.9414   -9.8414   38.2914 H         1 UNK         0.1150 
     33 H33        -7.2070  -14.6348   38.3093 H         1 UNK         0.1150 
     34 H34        -7.9358  -13.3198   40.5058 H         1 UNK         0.0600 
     35 H35        -6.2444  -13.5514   40.1234 H         1 UNK         0.0600 
     36 H36       -11.7175  -10.1146   35.1401 H         1 UNK         0.0300 
     37 H37       -11.7306  -10.3711   36.8803 H         1 UNK         0.0300 
     38 H38       -10.1883  -10.2952   35.9929 H         1 UNK         0.0300 
     39 H39        -6.5387  -17.6262   35.0251 H         1 UNK         0.0300 
     40 H40        -5.4526  -16.3163   34.5782 H         1 UNK         0.0300 
     41 H41        -7.1789  -16.2409   34.1487 H         1 UNK         0.0300 
@<TRIPOS>BOND
     1    1    3 ar   
     2    1    5 ar   
     3    1   26 1    
     4    2    4 ar   
     5    2    6 ar   
     6    2   27 1    
     7    3    9 ar   
     8    3   28 1    
     9    4   10 ar   
    10    4   29 1    
    11    5   11 ar   
    12    5   30 1    
    13    6   12 ar   
    14    6   31 1    
    15    7    9 ar   
    16    7   11 ar   
    17    7   32 1    
    18    8   10 ar   
    19    8   12 ar   
    20    8   33 1    
    21    9   13 1    
    22   10   15 1    
    23   11   23 1    
    24   12   24 1    
    25   13   19 ar   
    26   13   22 ar   
    27   14   20 ar   
    28   14   22 ar   
    29   14   25 1    
    30   15   16 1    
    31   15   21 2    
    32   16   25 1    
    33   16   34 1    
    34   16   35 1    
    35   17   23 1    
    36   17   36 1    
    37   17   37 1    
    38   17   38 1    
    39   18   24 1    
    40   18   39 1    
    41   18   40 1    
    42   18   41 1    
    43   19   20 ar   
    44   21   22 1    
@<TRIPOS>SUBSTRUCTURE
     1 UNK         1 GROUP             0       ****    0 ROOT    
@<TRIPOS>MOLECULE
ZINC09364029_15
41   43    1
SMALL
USER_CHARGES


@<TRIPOS>ATOM
      1 C1         -4.5575   -9.4917   36.9431 C.ar      1 UNK        -0.1150 
      2 C2         -4.6374   -8.0849   36.8272 C.ar      1 UNK        -0.1150 
      3 C3         -4.8515  -10.1240   38.1696 C.ar      1 UNK        -0.1150 
      4 C4         -5.0274   -7.2938   37.9297 C.ar      1 UNK        -0.1150 
      5 C5         -7.7000   -5.7959   38.5812 C.ar      1 UNK        -0.1150 
      6 C6         -6.4009   -3.9559   39.4921 C.ar      1 UNK        -0.1150 
      7 C7         -6.7890   -5.3064   39.5412 C.ar      1 UNK        -0.1150 
      8 C8         -5.2424   -9.3202   39.2541 C.ar      1 UNK        -0.1150 
      9 C9         -5.3602   -7.9388   39.1423 C.ar      1 UNK        -0.0383 
     10 C10        -8.1779   -4.9729   37.5290 C.ar      1 UNK         0.0850 
     11 C11        -7.7345   -3.6180   37.4612 C.ar      1 UNK         0.0850 
     12 C12        -6.8669   -3.1227   38.4622 C.ar      1 UNK         0.1800 
     13 C13        -6.3043   -6.1779   40.6649 C.2       1 UNK         0.6150 
     14 C14        -5.5326   -9.7763   40.6540 C.3       1 UNK        -0.0050 
     15 C15        -5.6722   -8.4431   41.4320 C.3       1 UNK         0.0100 
     16 C16        -4.4760   -8.2155   42.3780 C.3       1 UNK        -0.1800 
     17 C17        -9.4621   -6.8072   36.6179 C.3       1 UNK         0.1100 
     18 C18        -8.4462   -3.1740   35.1927 C.3       1 UNK         0.1100 
     19 N19        -5.7589   -7.3945   40.3941 N.am      1 UNK        -0.0317 
     20 O20        -6.4312   -5.7555   41.8144 O.2       1 UNK        -0.5000 
     21 O21        -9.0763   -5.4401   36.5898 O.3       1 UNK        -0.2850 
     22 O22        -8.1106   -2.7088   36.4907 O.3       1 UNK        -0.2850 
     23 Cl23       -6.3393   -1.4776   38.4274 Cl        1 UNK        -0.1800 
     24 H24        -4.2503  -10.0842   36.0932 H         1 UNK         0.1150 
     25 H25        -4.3870   -7.6096   35.8896 H         1 UNK         0.1150 
     26 H26        -4.7644  -11.1959   38.2738 H         1 UNK         0.1150 
     27 H27        -5.0515   -6.2195   37.8241 H         1 UNK         0.1150 
     28 H28        -8.0159   -6.8237   38.6744 H         1 UNK         0.1150 
     29 H29        -5.7392   -3.5542   40.2465 H         1 UNK         0.1150 
     30 H30        -6.4647  -10.3424   40.6636 H         1 UNK         0.0600 
     31 H31        -4.7348  -10.4148   41.0354 H         1 UNK         0.0600 
     32 H32        -6.5911   -8.4631   42.0218 H         1 UNK         0.0600 
     33 H33        -3.5359   -8.1795   41.8261 H         1 UNK         0.0600 
     34 H34        -4.3997   -9.0172   43.1127 H         1 UNK         0.0600 
     35 H35        -4.5714   -7.2802   42.9306 H         1 UNK         0.0600 
     36 H36       -10.1348   -7.0061   35.7838 H         1 UNK         0.0300 
     37 H37        -9.9979   -7.0528   37.5357 H         1 UNK         0.0300 
     38 H38        -8.6012   -7.4689   36.5101 H         1 UNK         0.0300 
     39 H39        -8.3166   -2.3603   34.4797 H         1 UNK         0.0300 
     40 H40        -9.4904   -3.4833   35.1434 H         1 UNK         0.0300 
     41 H41        -7.8049   -3.9951   34.8696 H         1 UNK         0.0300 
@<TRIPOS>BOND
     1    1    2 ar   
     2    1    3 ar   
     3    1   24 1    
     4    2    4 ar   
     5    2   25 1    
     6    3    8 ar   
     7    3   26 1    
     8    4    9 ar   
     9    4   27 1    
    10    5    7 ar   
    11    5   10 ar   
    12    5   28 1    
    13    6    7 ar   
    14    6   12 ar   
    15    6   29 1    
    16    7   13 1    
    17    8    9 ar   
    18    8   14 1    
    19    9   19 1    
    20   10   11 ar   
    21   10   21 1    
    22   11   12 ar   
    23   11   22 1    
    24   12   23 1    
    25   13   19 am   BACKBONE|DICT|INTERRES
    26   13   20 2    
    27   14   15 1    
    28   14   30 1    
    29   14   31 1    
    30   15   16 1    
    31   15   19 1    
    32   15   32 1    
    33   16   33 1    
    34   16   34 1    
    35   16   35 1    
    36   17   21 1    
    37   17   36 1    
    38   17   37 1    
    39   17   38 1    
    40   18   22 1    
    41   18   39 1    
    42   18   40 1    
    43   18   41 1    
@<TRIPOS>SUBSTRUCTURE
     1 UNK         1 GROUP             0       ****    0 ROOT    
@<TRIPOS>MOLECULE
ZINC09364030_19
41   43    1
SMALL
USER_CHARGES


@<TRIPOS>ATOM
      1 C1         -4.1548   -9.4906   37.0795 C.ar      1 UNK        -0.1150 
      2 C2         -4.4609   -8.1270   36.8712 C.ar      1 UNK        -0.1150 
      3 C3         -4.4077  -10.0924   38.3293 C.ar      1 UNK        -0.1150 
      4 C4         -5.0365   -7.3531   37.9023 C.ar      1 UNK        -0.1150 
      5 C5         -7.7245   -5.7614   38.5729 C.ar      1 UNK        -0.1150 
      6 C6         -6.3035   -3.9605   39.3733 C.ar      1 UNK        -0.1150 
      7 C7         -6.7500   -5.2896   39.4776 C.ar      1 UNK        -0.1150 
      8 C8         -4.9846   -9.3071   39.3421 C.ar      1 UNK        -0.1150 
      9 C9         -5.3229   -7.9717   39.1423 C.ar      1 UNK        -0.0383 
     10 C10        -8.2193   -4.9420   37.5255 C.ar      1 UNK         0.0850 
     11 C11        -7.7214   -3.6091   37.4018 C.ar      1 UNK         0.0850 
     12 C12        -6.7813   -3.1323   38.3449 C.ar      1 UNK         0.1800 
     13 C13        -6.2567   -6.1574   40.5997 C.2       1 UNK         0.6150 
     14 C14        -5.2795   -9.7430   40.7452 C.3       1 UNK        -0.0050 
     15 C15        -5.8295   -8.4582   41.4120 C.3       1 UNK         0.0100 
     16 C16        -7.2037   -8.7076   42.0686 C.3       1 UNK        -0.1800 
     17 C17        -9.6475   -6.7322   36.7465 C.3       1 UNK         0.1100 
     18 C18        -8.6026   -3.1642   35.1875 C.3       1 UNK         0.1100 
     19 N19        -5.8766   -7.4366   40.3418 N.am      1 UNK        -0.0317 
     20 O20        -6.1970   -5.6711   41.7296 O.2       1 UNK        -0.5000 
     21 O21        -9.1828   -5.3935   36.6448 O.3       1 UNK        -0.2850 
     22 O22        -8.1026   -2.7008   36.4318 O.3       1 UNK        -0.2850 
     23 Cl23       -6.1813   -1.5152   38.2409 Cl        1 UNK        -0.1800 
     24 H24        -3.7090  -10.0699   36.2836 H         1 UNK         0.1150 
     25 H25        -4.2427   -7.6695   35.9168 H         1 UNK         0.1150 
     26 H26        -4.1533  -11.1277   38.5047 H         1 UNK         0.1150 
     27 H27        -5.2268   -6.3086   37.7125 H         1 UNK         0.1150 
     28 H28        -8.0779   -6.7726   38.7063 H         1 UNK         0.1150 
     29 H29        -5.5878   -3.5711   40.0839 H         1 UNK         0.1150 
     30 H30        -6.0062  -10.5562   40.7324 H         1 UNK         0.0600 
     31 H31        -4.3718  -10.0963   41.2358 H         1 UNK         0.0600 
     32 H32        -5.1206   -8.1203   42.1706 H         1 UNK         0.0600 
     33 H33        -7.9530   -8.9908   41.3286 H         1 UNK         0.0600 
     34 H34        -7.5690   -7.8237   42.5928 H         1 UNK         0.0600 
     35 H35        -7.1425   -9.5107   42.8035 H         1 UNK         0.0600 
     36 H36       -10.3794   -6.9175   35.9605 H         1 UNK         0.0300 
     37 H37       -10.1417   -6.9129   37.7020 H         1 UNK         0.0300 
     38 H38        -8.8353   -7.4484   36.6139 H         1 UNK         0.0300 
     39 H39        -8.5182   -2.3647   34.4517 H         1 UNK         0.0300 
     40 H40        -9.6587   -3.4250   35.2585 H         1 UNK         0.0300 
     41 H41        -8.0361   -4.0167   34.8096 H         1 UNK         0.0300 
@<TRIPOS>BOND
     1    1    2 ar   
     2    1    3 ar   
     3    1   24 1    
     4    2    4 ar   
     5    2   25 1    
     6    3    8 ar   
     7    3   26 1    
     8    4    9 ar   
     9    4   27 1    
    10    5    7 ar   
    11    5   10 ar   
    12    5   28 1    
    13    6    7 ar   
    14    6   12 ar   
    15    6   29 1    
    16    7   13 1    
    17    8    9 ar   
    18    8   14 1    
    19    9   19 1    
    20   10   11 ar   
    21   10   21 1    
    22   11   12 ar   
    23   11   22 1    
    24   12   23 1    
    25   13   19 am   BACKBONE|DICT|INTERRES
    26   13   20 2    
    27   14   15 1    
    28   14   30 1    
    29   14   31 1    
    30   15   16 1    
    31   15   19 1    
    32   15   32 1    
    33   16   33 1    
    34   16   34 1    
    35   16   35 1    
    36   17   21 1    
    37   17   36 1    
    38   17   37 1    
    39   17   38 1    
    40   18   22 1    
    41   18   39 1    
    42   18   40 1    
    43   18   41 1    
@<TRIPOS>SUBSTRUCTURE
     1 UNK         1 GROUP             0       ****    0 ROOT    
@<TRIPOS>MOLECULE
ZINC09432006_115
46   49    1
SMALL
USER_CHARGES


@<TRIPOS>ATOM
      1 C1         -5.2008  -12.9326   34.0978 C.ar      1 UNK        -0.1150 
      2 C2         -4.7920  -14.2539   34.3623 C.ar      1 UNK        -0.1150 
      3 C3         -5.3226  -12.0093   35.1542 C.ar      1 UNK        -0.1150 
      4 C4         -4.5018  -14.6488   35.6830 C.ar      1 UNK        -0.1150 
      5 C5         -7.9241   -5.1571   39.2905 C.ar      1 UNK        -0.1150 
      6 C6         -9.2251   -7.0779   38.5676 C.ar      1 UNK        -0.1150 
      7 C7         -8.2127   -6.5314   39.3775 C.ar      1 UNK         0.0000 
      8 C8         -5.0444  -12.4037   36.4784 C.ar      1 UNK         0.0850 
      9 C9         -8.6211   -4.3145   38.3894 C.ar      1 UNK         0.0850 
     10 C10        -9.9341   -6.2643   37.6539 C.ar      1 UNK         0.0850 
     11 C11        -9.6213   -4.8878   37.5494 C.ar      1 UNK         0.0850 
     12 C12        -4.6231  -13.7277   36.7419 C.ar      1 UNK         0.1800 
     13 C13        -7.4573   -7.3653   40.3117 C.ar      1 UNK         0.4100 
     14 C14        -6.3122   -9.0191   41.2355 C.ar      1 UNK         0.4175 
     15 C15        -6.4815  -10.4813   39.2419 C.2       1 UNK         0.2035 
     16 C16        -7.4050   -2.3832   39.1845 C.3       1 UNK         0.1100 
     17 C17       -11.2883   -8.1156   36.9164 C.3       1 UNK         0.1100 
     18 C18        -9.7788   -3.0701   35.9678 C.3       1 UNK         0.1100 
     19 C19        -6.3844  -11.5704   38.1996 C.3       1 UNK         0.1818 
     20 N20        -7.0772   -6.9927   41.5465 N.2       1 UNK        -0.3633 
     21 N21        -6.3542   -8.0635   42.1300 N.2       1 UNK        -0.3633 
     22 N22        -7.1166   -9.3244   39.0177 N.2       1 UNK        -0.2500 
     23 N23        -6.9831   -8.5995   40.1455 N.pl3     1 UNK        -0.0934 
     24 O24        -8.3753   -2.9568   38.3196 O.3       1 UNK        -0.2850 
     25 O25       -10.9301   -6.7452   36.8272 O.3       1 UNK        -0.2850 
     26 O26       -10.3665   -4.1827   36.6242 O.3       1 UNK        -0.2850 
     27 O27        -5.1630  -11.4803   37.4829 O.3       1 UNK        -0.2850 
     28 S28        -5.7316  -10.6329   40.8700 S.3       1 UNK        -0.0028 
     29 Cl29       -4.2429  -14.2314   38.3500 Cl        1 UNK        -0.1800 
     30 H30        -5.4172  -12.6251   33.0844 H         1 UNK         0.1150 
     31 H31        -4.6940  -14.9627   33.5524 H         1 UNK         0.1150 
     32 H32        -5.6299  -10.9939   34.9502 H         1 UNK         0.1150 
     33 H33        -4.1788  -15.6591   35.8863 H         1 UNK         0.1150 
     34 H34        -7.1542   -4.7734   39.9423 H         1 UNK         0.1150 
     35 H35        -9.4451   -8.1286   38.6663 H         1 UNK         0.1150 
     36 H36        -7.3535   -1.3096   39.0034 H         1 UNK         0.0300 
     37 H37        -6.4116   -2.7944   39.0001 H         1 UNK         0.0300 
     38 H38        -7.6695   -2.5260   40.2332 H         1 UNK         0.0300 
     39 H39       -12.0947   -8.3214   36.2128 H         1 UNK         0.0300 
     40 H40       -11.6496   -8.3698   37.9136 H         1 UNK         0.0300 
     41 H41       -10.4509   -8.7641   36.6565 H         1 UNK         0.0300 
     42 H42       -10.2864   -2.9112   35.0168 H         1 UNK         0.0300 
     43 H43        -8.7215   -3.2294   35.7515 H         1 UNK         0.0300 
     44 H44        -9.8990   -2.1590   36.5540 H         1 UNK         0.0300 
     45 H45        -7.2292  -11.4829   37.5138 H         1 UNK         0.0300 
     46 H46        -6.4736  -12.5357   38.6982 H         1 UNK         0.0300 
@<TRIPOS>BOND
     1    1    2 ar   
     2    1    3 ar   
     3    1   30 1    
     4    2    4 ar   
     5    2   31 1    
     6    3    8 ar   
     7    3   32 1    
     8    4   12 ar   
     9    4   33 1    
    10    5    7 ar   
    11    5    9 ar   
    12    5   34 1    
    13    6    7 ar   
    14    6   10 ar   
    15    6   35 1    
    16    7   13 1    
    17    8   12 ar   
    18    8   27 1    
    19    9   11 ar   
    20    9   24 1    
    21   10   11 ar   
    22   10   25 1    
    23   11   26 1    
    24   12   29 1    
    25   13   20 ar   
    26   13   23 ar   
    27   14   21 ar   
    28   14   23 ar   
    29   14   28 1    
    30   15   19 1    
    31   15   22 2    
    32   15   28 1    
    33   16   24 1    
    34   16   36 1    
    35   16   37 1    
    36   16   38 1    
    37   17   25 1    
    38   17   39 1    
    39   17   40 1    
    40   17   41 1    
    41   18   26 1    
    42   18   42 1    
    43   18   43 1    
    44   18   44 1    
    45   19   27 1    
    46   19   45 1    
    47   19   46 1    
    48   20   21 ar   
    49   22   23 1    
@<TRIPOS>SUBSTRUCTURE
     1 UNK         1 GROUP             0       ****    0 ROOT    
@<TRIPOS>MOLECULE
ZINC09451701_14
48   52    1
SMALL
USER_CHARGES


@<TRIPOS>ATOM
      1 C1         -4.3372   -8.8463   36.6097 C.ar      1 UNK        -0.1150 
      2 C2         -4.0609   -9.3489   35.3175 C.ar      1 UNK        -0.1150 
      3 C3         -6.8593   -3.9183   39.7731 C.ar      1 UNK        -0.1150 
      4 C4         -7.5884   -5.8295   38.4638 C.ar      1 UNK        -0.1150 
      5 C5         -4.8419  -11.1106   37.4238 C.ar      1 UNK        -0.1150 
      6 C6         -6.9375   -5.3127   39.6012 C.ar      1 UNK         0.0000 
      7 C7         -4.7210   -9.7180   37.6691 C.ar      1 UNK         0.0044 
      8 C8         -4.1821  -10.7314   35.1145 C.ar      1 UNK         0.0850 
      9 C9         -4.5605  -11.5812   36.1320 C.ar      1 UNK         0.0850 
     10 C10        -7.4061   -3.0390   38.8098 C.ar      1 UNK         0.0850 
     11 C11        -8.1389   -4.9752   37.4769 C.ar      1 UNK         0.0850 
     12 C12        -8.0274   -3.5646   37.6522 C.ar      1 UNK         0.0850 
     13 C13        -6.3432   -6.1988   40.6051 C.ar      1 UNK         0.4100 
     14 C14        -5.3214   -7.7617   41.5843 C.ar      1 UNK         0.5625 
     15 C15        -5.0208   -9.1687   39.0192 C.2       1 UNK         0.3492 
     16 C16        -4.8743  -10.0475   40.2673 C.3       1 UNK         0.0836 
     17 C17        -4.2324  -12.7841   34.3143 C.3       1 UNK         0.2000 
     18 C18        -6.7842   -1.0994   40.0951 C.3       1 UNK         0.1100 
     19 C19        -8.8626   -6.8734   36.1664 C.3       1 UNK         0.1100 
     20 C20        -8.5201   -2.9240   35.3791 C.3       1 UNK         0.1100 
     21 N21        -6.3792   -5.9183   41.9155 N.2       1 UNK        -0.3633 
     22 N22        -5.7106   -6.9423   42.5562 N.2       1 UNK        -0.3633 
     23 N23        -5.4174   -7.9588   39.1196 N.2       1 UNK        -0.3897 
     24 N24        -5.6897   -7.3575   40.3550 N.pl3     1 UNK        -0.0934 
     25 O25        -3.9751  -11.4444   33.9794 O.3       1 UNK        -0.2850 
     26 O26        -4.6048  -12.8552   35.6676 O.3       1 UNK        -0.2850 
     27 O27        -7.3553   -1.6640   38.9242 O.3       1 UNK        -0.2850 
     28 O28        -8.8010   -5.4689   36.3692 O.3       1 UNK        -0.2850 
     29 O29        -8.5209   -2.6265   36.7667 O.3       1 UNK        -0.2850 
     30 S30        -4.3890   -9.2275   41.8166 S.3       1 UNK        -0.3200 
     31 H31        -4.2481   -7.7825   36.7822 H         1 UNK         0.1150 
     32 H32        -3.7664   -8.6938   34.5108 H         1 UNK         0.1150 
     33 H33        -6.3666   -3.5454   40.6581 H         1 UNK         0.1150 
     34 H34        -7.6643   -6.9005   38.3742 H         1 UNK         0.1150 
     35 H35        -5.1481  -11.8092   38.1878 H         1 UNK         0.1150 
     36 H36        -5.8274  -10.5475   40.4396 H         1 UNK         0.0600 
     37 H37        -4.1392  -10.8293   40.0790 H         1 UNK         0.0600 
     38 H38        -5.0401  -13.1687   33.6900 H         1 UNK         0.1000 
     39 H39        -3.3343  -13.3808   34.1496 H         1 UNK         0.1000 
     40 H40        -6.8536   -0.0132   40.0396 H         1 UNK         0.0300 
     41 H41        -5.7285   -1.3571   40.1878 H         1 UNK         0.0300 
     42 H42        -7.3162   -1.4177   40.9928 H         1 UNK         0.0300 
     43 H43        -9.3763   -7.0769   35.2269 H         1 UNK         0.0300 
     44 H44        -9.4245   -7.3668   36.9604 H         1 UNK         0.0300 
     45 H45        -7.8664   -7.3129   36.0973 H         1 UNK         0.0300 
     46 H46        -8.4984   -1.9911   34.8162 H         1 UNK         0.0300 
     47 H47        -9.4275   -3.4545   35.0904 H         1 UNK         0.0300 
     48 H48        -7.6470   -3.5062   35.0813 H         1 UNK         0.0300 
@<TRIPOS>BOND
     1    1    2 ar   
     2    1    7 ar   
     3    1   31 1    
     4    2    8 ar   
     5    2   32 1    
     6    3    6 ar   
     7    3   10 ar   
     8    3   33 1    
     9    4    6 ar   
    10    4   11 ar   
    11    4   34 1    
    12    5    7 ar   
    13    5    9 ar   
    14    5   35 1    
    15    6   13 1    
    16    7   15 1    
    17    8    9 ar   
    18    8   25 1    
    19    9   26 1    
    20   10   12 ar   
    21   10   27 1    
    22   11   12 ar   
    23   11   28 1    
    24   12   29 1    
    25   13   21 ar   
    26   13   24 ar   
    27   14   22 ar   
    28   14   24 ar   
    29   14   30 1    
    30   15   16 1    
    31   15   23 2    
    32   16   30 1    
    33   16   36 1    
    34   16   37 1    
    35   17   25 1    
    36   17   26 1    
    37   17   38 1    
    38   17   39 1    
    39   18   27 1    
    40   18   40 1    
    41   18   41 1    
    42   18   42 1    
    43   19   28 1    
    44   19   43 1    
    45   19   44 1    
    46   19   45 1    
    47   20   29 1    
    48   20   46 1    
    49   20   47 1    
    50   20   48 1    
    51   21   22 ar   
    52   23   24 1    
@<TRIPOS>SUBSTRUCTURE
     1 UNK         1 GROUP             0       ****    0 ROOT    
@<TRIPOS>MOLECULE
ZINC09463453_16
53   56    1
SMALL
USER_CHARGES


@<TRIPOS>ATOM
      1 C1         -4.2312   -8.7337   36.6110 C.ar      1 UNK        -0.1150 
      2 C2         -3.8925   -9.2083   35.3299 C.ar      1 UNK        -0.1150 
      3 C3         -6.8909   -3.8728   39.7541 C.ar      1 UNK        -0.1150 
      4 C4         -7.5342   -5.7134   38.3055 C.ar      1 UNK        -0.1150 
      5 C5         -4.8071  -11.0000   37.2890 C.ar      1 UNK        -0.1150 
      6 C6         -6.9853   -5.2573   39.5203 C.ar      1 UNK         0.0000 
      7 C7         -4.6967   -9.6270   37.6028 C.ar      1 UNK         0.0044 
      8 C8         -4.0213  -10.5730   35.0086 C.ar      1 UNK         0.0850 
      9 C9         -7.3392   -2.9432   38.7869 C.ar      1 UNK         0.0850 
     10 C10        -7.9727   -4.8075   37.3091 C.ar      1 UNK         0.0850 
     11 C11        -4.4517  -11.4805   36.0132 C.ar      1 UNK         0.0850 
     12 C12        -7.8911   -3.4090   37.5700 C.ar      1 UNK         0.0850 
     13 C13        -6.4958   -6.1948   40.5344 C.ar      1 UNK         0.4100 
     14 C14        -5.5842   -7.8124   41.5336 C.ar      1 UNK         0.5625 
     15 C15        -5.0877   -9.1244   38.9480 C.2       1 UNK         0.3492 
     16 C16        -5.0511  -10.0525   40.1683 C.3       1 UNK         0.0836 
     17 C17        -4.5971  -11.8480   33.0828 C.3       1 UNK         0.1100 
     18 C18        -6.7538   -1.0712   40.1844 C.3       1 UNK         0.1100 
     19 C19        -8.3991   -6.6232   35.7722 C.3       1 UNK         0.1100 
     20 C20        -3.2566  -13.4675   35.7890 C.3       1 UNK         0.1100 
     21 C21        -9.4299   -2.6735   35.8699 C.3       1 UNK         0.1100 
     22 N22        -6.6429   -5.9662   41.8472 N.2       1 UNK        -0.3633 
     23 N23        -6.0459   -7.0255   42.5009 N.2       1 UNK        -0.3633 
     24 N24        -5.4730   -7.9126   39.0641 N.2       1 UNK        -0.3897 
     25 N25        -5.8403   -7.3546   40.2948 N.pl3     1 UNK        -0.0934 
     26 O26        -3.7062  -10.9420   33.7216 O.3       1 UNK        -0.2850 
     27 O27        -7.2753   -1.5754   38.9638 O.3       1 UNK        -0.2850 
     28 O28        -8.4513   -5.2388   36.0868 O.3       1 UNK        -0.2850 
     29 O29        -4.5266  -12.8312   35.7987 O.3       1 UNK        -0.2850 
     30 O30        -8.2918   -2.4299   36.6827 O.3       1 UNK        -0.2850 
     31 S31        -4.6929   -9.3000   41.7851 S.3       1 UNK        -0.3200 
     32 H32        -4.1352   -7.6772   36.8212 H         1 UNK         0.1150 
     33 H33        -3.5487   -8.5156   34.5753 H         1 UNK         0.1150 
     34 H34        -6.4659   -3.5470   40.6914 H         1 UNK         0.1150 
     35 H35        -7.6040   -6.7778   38.1543 H         1 UNK         0.1150 
     36 H36        -5.1603  -11.7121   38.0196 H         1 UNK         0.1150 
     37 H37        -6.0182  -10.5504   40.2402 H         1 UNK         0.0600 
     38 H38        -4.3068  -10.8324   40.0108 H         1 UNK         0.0600 
     39 H39        -4.5602  -11.6841   32.0060 H         1 UNK         0.0300 
     40 H40        -5.6311  -11.7050   33.4011 H         1 UNK         0.0300 
     41 H41        -4.3122  -12.8843   33.2601 H         1 UNK         0.0300 
     42 H42        -6.7848    0.0180   40.1646 H         1 UNK         0.0300 
     43 H43        -5.7138   -1.3678   40.3269 H         1 UNK         0.0300 
     44 H44        -7.3463   -1.4017   41.0386 H         1 UNK         0.0300 
     45 H45        -8.7487   -6.7706   34.7507 H         1 UNK         0.0300 
     46 H46        -9.0475   -7.2057   36.4278 H         1 UNK         0.0300 
     47 H47        -7.3805   -7.0107   35.8289 H         1 UNK         0.0300 
     48 H48        -3.3826  -14.5304   35.5833 H         1 UNK         0.0300 
     49 H49        -2.7655  -13.3696   36.7581 H         1 UNK         0.0300 
     50 H50        -2.5961  -13.0554   35.0250 H         1 UNK         0.0300 
     51 H51        -9.8841   -1.7204   35.5994 H         1 UNK         0.0300 
     52 H52       -10.1887   -3.2632   36.3867 H         1 UNK         0.0300 
     53 H53        -9.1506   -3.1732   34.9422 H         1 UNK         0.0300 
@<TRIPOS>BOND
     1    1    2 ar   
     2    1    7 ar   
     3    1   32 1    
     4    2    8 ar   
     5    2   33 1    
     6    3    6 ar   
     7    3    9 ar   
     8    3   34 1    
     9    4    6 ar   
    10    4   10 ar   
    11    4   35 1    
    12    5    7 ar   
    13    5   11 ar   
    14    5   36 1    
    15    6   13 1    
    16    7   15 1    
    17    8   11 ar   
    18    8   26 1    
    19    9   12 ar   
    20    9   27 1    
    21   10   12 ar   
    22   10   28 1    
    23   11   29 1    
    24   12   30 1    
    25   13   22 ar   
    26   13   25 ar   
    27   14   23 ar   
    28   14   25 ar   
    29   14   31 1    
    30   15   16 1    
    31   15   24 2    
    32   16   31 1    
    33   16   37 1    
    34   16   38 1    
    35   17   26 1    
    36   17   39 1    
    37   17   40 1    
    38   17   41 1    
    39   18   27 1    
    40   18   42 1    
    41   18   43 1    
    42   18   44 1    
    43   19   28 1    
    44   19   45 1    
    45   19   46 1    
    46   19   47 1    
    47   20   29 1    
    48   20   48 1    
    49   20   49 1    
    50   20   50 1    
    51   21   30 1    
    52   21   51 1    
    53   21   52 1    
    54   21   53 1    
    55   22   23 ar   
    56   24   25 1    
@<TRIPOS>SUBSTRUCTURE
     1 UNK         1 GROUP             0       ****    0 ROOT    
@<TRIPOS>MOLECULE
ZINC09547045_9
46   50    1
SMALL
USER_CHARGES


@<TRIPOS>ATOM
      1 C1         -5.8074   -9.9805   35.1201 C.ar      1 UNK        -0.2222 
      2 C2         -5.2897  -11.2009   34.6480 C.ar      1 UNK        -0.0888 
      3 C3         -5.7314   -9.6579   36.4906 C.ar      1 UNK        -0.2243 
      4 C4         -4.6938  -12.1002   35.5505 C.ar      1 UNK        -0.3541 
      5 C5         -7.2411   -4.2949   39.5137 C.ar      1 UNK        -0.1150 
      6 C6         -8.0868   -6.3431   38.5016 C.ar      1 UNK        -0.1150 
      7 C7         -4.2805  -11.6950   39.1552 C.ar      1 UNK        -0.1072 
      8 C8         -5.1419  -10.5417   37.4291 C.ar      1 UNK         0.1233 
      9 C9         -7.3649   -5.6986   39.5278 C.ar      1 UNK         0.0000 
     10 C10        -4.9175  -10.5133   38.8588 C.ar      1 UNK        -0.1190 
     11 C11        -4.6254  -11.7680   36.9147 C.ar      1 UNK         0.2860 
     12 C12        -7.8200   -3.5266   38.4751 C.ar      1 UNK         0.0850 
     13 C13        -8.6663   -5.5982   37.4479 C.ar      1 UNK         0.0850 
     14 C14        -8.5209   -4.1929   37.4417 C.ar      1 UNK         0.0850 
     15 C15        -6.7367   -6.4617   40.6071 C.ar      1 UNK         0.4100 
     16 C16        -5.6556   -8.0102   41.7668 C.ar      1 UNK         0.4175 
     17 C17        -5.2850   -9.4587   39.8061 C.2       1 UNK         0.2453 
     18 C18        -7.0984   -1.4580   39.4703 C.3       1 UNK         0.1100 
     19 C19        -9.5113   -7.5785   36.3715 C.3       1 UNK         0.1100 
     20 C20        -8.1693   -3.0286   35.4499 C.3       1 UNK         0.1100 
     21 N21        -6.6527   -6.0655   41.8897 N.2       1 UNK        -0.3633 
     22 N22        -5.9677   -7.0686   42.6220 N.2       1 UNK        -0.3633 
     23 N23        -5.9526   -8.3644   39.4308 N.2       1 UNK        -0.2500 
     24 N24        -4.1094  -12.4381   38.0003 N.pl3     1 UNK        -0.4786 
     25 N25        -6.1215   -7.6421   40.5553 N.pl3     1 UNK        -0.0934 
     26 O26        -7.7424   -2.1500   38.4107 O.3       1 UNK        -0.2850 
     27 O27        -9.3666   -6.1665   36.4031 O.3       1 UNK        -0.2850 
     28 O28        -9.0972   -3.4781   36.4230 O.3       1 UNK        -0.2850 
     29 S29        -4.8673   -9.5662   41.5510 S.3       1 UNK        -0.0028 
     30 H30        -6.2617   -9.2854   34.4273 H         1 UNK         0.1489 
     31 H31        -5.3478  -11.4434   33.5957 H         1 UNK         0.1359 
     32 H32        -6.1274   -8.7129   36.8289 H         1 UNK         0.1699 
     33 H33        -4.2929  -13.0362   35.1928 H         1 UNK         0.1796 
     34 H34        -6.6918   -3.8298   40.3182 H         1 UNK         0.1150 
     35 H35        -8.1893   -7.4155   38.5416 H         1 UNK         0.1150 
     36 H36        -3.9346  -12.0681   40.1098 H         1 UNK         0.1929 
     37 H37        -7.1494   -0.3858   39.2816 H         1 UNK         0.0300 
     38 H38        -6.0444   -1.7295   39.5417 H         1 UNK         0.0300 
     39 H39        -7.5877   -1.6474   40.4267 H         1 UNK         0.0300 
     40 H40       -10.0809   -7.8606   35.4861 H         1 UNK         0.0300 
     41 H41       -10.0560   -7.9440   37.2430 H         1 UNK         0.0300 
     42 H42        -8.5436   -8.0783   36.3125 H         1 UNK         0.0300 
     43 H43        -8.7055   -2.5437   34.6345 H         1 UNK         0.0300 
     44 H44        -7.6071   -3.8639   35.0297 H         1 UNK         0.0300 
     45 H45        -7.4647   -2.3058   35.8614 H         1 UNK         0.0300 
     46 H46        -3.6652  -13.3445   37.9739 H         1 UNK         0.3577 
@<TRIPOS>BOND
     1    1    2 ar   
     2    1    3 ar   
     3    1   30 1    
     4    2    4 ar   
     5    2   31 1    
     6    3    8 ar   
     7    3   32 1    
     8    4   11 ar   
     9    4   33 1    
    10    5    9 ar   
    11    5   12 ar   
    12    5   34 1    
    13    6    9 ar   
    14    6   13 ar   
    15    6   35 1    
    16    7   10 ar   
    17    7   24 ar   
    18    7   36 1    
    19    8   10 ar   
    20    8   11 ar   
    21    9   15 1    
    22   10   17 1    
    23   11   24 ar   
    24   12   14 ar   
    25   12   26 1    
    26   13   14 ar   
    27   13   27 1    
    28   14   28 1    
    29   15   21 ar   
    30   15   25 ar   
    31   16   22 ar   
    32   16   25 ar   
    33   16   29 1    
    34   17   23 2    
    35   17   29 1    
    36   18   26 1    
    37   18   37 1    
    38   18   38 1    
    39   18   39 1    
    40   19   27 1    
    41   19   40 1    
    42   19   41 1    
    43   19   42 1    
    44   20   28 1    
    45   20   43 1    
    46   20   44 1    
    47   20   45 1    
    48   21   22 ar   
    49   23   25 1    
    50   24   46 1    
@<TRIPOS>SUBSTRUCTURE
     1 UNK         1 GROUP             0       ****    0 ROOT    
@<TRIPOS>MOLECULE
ZINC09584225_19
51   53    1
SMALL
USER_CHARGES


@<TRIPOS>ATOM
      1 C1         -7.9389   -5.8911   38.6818 C.ar      1 UNK        -0.1150 
      2 C2         -6.7045   -3.9640   39.5223 C.ar      1 UNK        -0.1150 
      3 C3         -7.0175   -5.3360   39.5956 C.ar      1 UNK        -0.1150 
      4 C4         -8.5014   -5.0991   37.6531 C.ar      1 UNK         0.0850 
      5 C5         -7.2644   -3.1496   38.5092 C.ar      1 UNK         0.0850 
      6 C6         -8.1498   -3.7316   37.5742 C.ar      1 UNK         0.0850 
      7 C7         -6.4250   -6.1737   40.6932 C.2       1 UNK         0.6150 
      8 C8         -3.6149   -9.2428   37.1246 C.3       1 UNK        -0.1200 
      9 C9         -3.2305   -7.8093   37.5233 C.3       1 UNK        -0.1200 
     10 C10        -5.9315   -9.7256   41.0393 C.3       1 UNK        -0.1200 
     11 C11        -5.1355   -9.4626   37.2144 C.3       1 UNK        -0.1200 
     12 C12        -5.3685  -10.1492   39.6779 C.3       1 UNK        -0.1200 
     13 C13        -3.7477   -7.4655   38.9288 C.3       1 UNK        -0.1200 
     14 C14        -5.4544   -8.3147   41.4215 C.3       1 UNK        -0.0500 
     15 C15        -5.7088   -9.1035   38.6007 C.3       1 UNK        -0.0600 
     16 C16        -5.2752   -7.6782   39.0259 C.3       1 UNK         0.0100 
     17 C17        -9.7563   -6.9542   36.7745 C.3       1 UNK         0.1100 
     18 C18        -6.1698   -1.1778   39.3409 C.3       1 UNK         0.1100 
     19 C19        -7.9985   -3.0323   35.3605 C.3       1 UNK         0.1100 
     20 N20        -5.7966   -7.3365   40.3709 N.am      1 UNK        -0.1400 
     21 O21        -6.5489   -5.7788   41.8524 O.2       1 UNK        -0.5000 
     22 O22        -9.3822   -5.5863   36.7090 O.3       1 UNK        -0.2850 
     23 O23        -6.9885   -1.8054   38.3660 O.3       1 UNK        -0.2850 
     24 O24        -8.6930   -2.9447   36.5921 O.3       1 UNK        -0.2850 
     25 H25        -8.1919   -6.9349   38.7853 H         1 UNK         0.1150 
     26 H26        -6.0255   -3.5599   40.2584 H         1 UNK         0.1150 
     27 H27        -3.2732   -9.4470   36.1091 H         1 UNK         0.0600 
     28 H28        -3.0955   -9.9555   37.7660 H         1 UNK         0.0600 
     29 H29        -2.1468   -7.6913   37.4872 H         1 UNK         0.0600 
     30 H30        -3.6404   -7.1047   36.7982 H         1 UNK         0.0600 
     31 H31        -7.0218   -9.7484   41.0110 H         1 UNK         0.0600 
     32 H32        -5.6290  -10.4408   41.8054 H         1 UNK         0.0600 
     33 H33        -5.6238   -8.8453   36.4589 H         1 UNK         0.0600 
     34 H34        -5.3805  -10.4945   36.9602 H         1 UNK         0.0600 
     35 H35        -4.2887  -10.2739   39.7606 H         1 UNK         0.0600 
     36 H36        -5.7689  -11.1244   39.3980 H         1 UNK         0.0600 
     37 H37        -3.2212   -8.0817   39.6571 H         1 UNK         0.0600 
     38 H38        -3.4987   -6.4305   39.1667 H         1 UNK         0.0600 
     39 H39        -5.8980   -8.0593   42.3856 H         1 UNK         0.0600 
     40 H40        -4.3778   -8.3072   41.5888 H         1 UNK         0.0600 
     41 H41        -6.7958   -9.0999   38.5029 H         1 UNK         0.0600 
     42 H42        -5.6857   -7.0120   38.2705 H         1 UNK         0.0600 
     43 H43       -10.4474   -7.1770   35.9616 H         1 UNK         0.0300 
     44 H44       -10.2657   -7.1832   37.7115 H         1 UNK         0.0300 
     45 H45        -8.8922   -7.6102   36.6609 H         1 UNK         0.0300 
     46 H46        -6.0856   -0.1162   39.1085 H         1 UNK         0.0300 
     47 H47        -5.1623   -1.5952   39.3440 H         1 UNK         0.0300 
     48 H48        -6.6012   -1.2629   40.3393 H         1 UNK         0.0300 
     49 H49        -8.4836   -2.3943   34.6222 H         1 UNK         0.0300 
     50 H50        -7.9945   -4.0518   34.9726 H         1 UNK         0.0300 
     51 H51        -6.9666   -2.6955   35.4692 H         1 UNK         0.0300 
@<TRIPOS>BOND
     1    1    3 ar   
     2    1    4 ar   
     3    1   25 1    
     4    2    3 ar   
     5    2    5 ar   
     6    2   26 1    
     7    3    7 1    
     8    4    6 ar   
     9    4   22 1    
    10    5    6 ar   
    11    5   23 1    
    12    6   24 1    
    13    7   20 am   BACKBONE|DICT|INTERRES
    14    7   21 2    
    15    8    9 1    
    16    8   11 1    
    17    8   27 1    
    18    8   28 1    
    19    9   13 1    
    20    9   29 1    
    21    9   30 1    
    22   10   12 1    
    23   10   14 1    
    24   10   31 1    
    25   10   32 1    
    26   11   15 1    
    27   11   33 1    
    28   11   34 1    
    29   12   15 1    
    30   12   35 1    
    31   12   36 1    
    32   13   16 1    
    33   13   37 1    
    34   13   38 1    
    35   14   20 1    
    36   14   39 1    
    37   14   40 1    
    38   15   16 1    
    39   15   41 1    
    40   16   20 1    
    41   16   42 1    
    42   17   22 1    
    43   17   43 1    
    44   17   44 1    
    45   17   45 1    
    46   18   23 1    
    47   18   46 1    
    48   18   47 1    
    49   18   48 1    
    50   19   24 1    
    51   19   49 1    
    52   19   50 1    
    53   19   51 1    
@<TRIPOS>SUBSTRUCTURE
     1 UNK         1 GROUP             0       ****    0 ROOT    
@<TRIPOS>MOLECULE
ZINC09615179_88
45   48    1
SMALL
USER_CHARGES


@<TRIPOS>ATOM
      1 C1         -2.6363   -9.4573   35.0301 C.ar      1 UNK        -0.1150 
      2 C2         -2.3916   -9.7972   36.3735 C.ar      1 UNK        -0.1150 
      3 C3         -3.9525   -9.4738   34.5337 C.ar      1 UNK        -0.1150 
      4 C4         -5.7831   -3.9243   39.0173 C.ar      1 UNK        -0.1150 
      5 C5         -3.4598  -10.1519   37.2206 C.ar      1 UNK        -0.1150 
      6 C6         -5.0196   -9.8263   35.3820 C.ar      1 UNK        -0.1150 
      7 C7         -6.4279   -3.1020   38.0786 C.ar      1 UNK        -0.1150 
      8 C8         -7.3622   -5.6971   38.5196 C.ar      1 UNK        -0.1150 
      9 C9         -6.2422   -5.2349   39.2434 C.ar      1 UNK         0.0000 
     10 C10        -4.7908  -10.1648   36.7309 C.ar      1 UNK         0.0850 
     11 C11        -7.5357   -3.5591   37.3380 C.ar      1 UNK         0.0850 
     12 C12        -8.0186   -4.8860   37.5563 C.ar      1 UNK         0.0850 
     13 C13        -5.5465   -6.0796   40.2209 C.ar      1 UNK         0.4100 
     14 C14        -4.6427   -7.7878   41.3049 C.ar      1 UNK         0.4175 
     15 C15        -5.4204   -9.4748   39.6639 C.2       1 UNK         0.2035 
     16 C16        -7.1039  -11.3107   39.3511 C.3       1 UNK        -0.1800 
     17 C17        -9.1135   -2.9521   35.5851 C.3       1 UNK         0.1100 
     18 C18        -9.4930   -6.7122   36.9703 C.3       1 UNK         0.1100 
     19 C19        -5.7667  -10.7301   38.8794 C.3       1 UNK         0.2118 
     20 N20        -4.9127   -5.6195   41.3156 N.2       1 UNK        -0.3633 
     21 N21        -4.3459   -6.7212   42.0026 N.2       1 UNK        -0.3633 
     22 N22        -5.8278   -8.2525   39.2996 N.2       1 UNK        -0.2500 
     23 N23        -5.3700   -7.4025   40.2387 N.pl3     1 UNK        -0.0934 
     24 O24        -8.0411   -2.6249   36.4535 O.3       1 UNK        -0.2850 
     25 O25        -9.1069   -5.3505   36.8435 O.3       1 UNK        -0.2850 
     26 O26        -5.9016  -10.4928   37.4805 O.3       1 UNK        -0.2850 
     27 S27        -4.4747   -9.5292   41.1923 S.3       1 UNK        -0.0028 
     28 H28        -1.8161   -9.1852   34.3811 H         1 UNK         0.1150 
     29 H29        -1.3811   -9.7853   36.7556 H         1 UNK         0.1150 
     30 H30        -4.1458   -9.2147   33.5028 H         1 UNK         0.1150 
     31 H31        -4.9324   -3.5459   39.5666 H         1 UNK         0.1150 
     32 H32        -3.2253  -10.4078   38.2413 H         1 UNK         0.1150 
     33 H33        -6.0282   -9.8345   34.9954 H         1 UNK         0.1150 
     34 H34        -6.0642   -2.0980   37.9167 H         1 UNK         0.1150 
     35 H35        -7.7160   -6.6919   38.7286 H         1 UNK         0.1150 
     36 H36        -7.9160  -10.5998   39.1951 H         1 UNK         0.0600 
     37 H37        -7.0745  -11.5597   40.4119 H         1 UNK         0.0600 
     38 H38        -7.3479  -12.2200   38.8013 H         1 UNK         0.0600 
     39 H39        -9.3241   -2.0959   34.9448 H         1 UNK         0.0300 
     40 H40       -10.0260   -3.1722   36.1401 H         1 UNK         0.0300 
     41 H41        -8.8614   -3.7889   34.9329 H         1 UNK         0.0300 
     42 H42       -10.3113   -6.9173   36.2804 H         1 UNK         0.0300 
     43 H43        -9.8506   -6.9331   37.9767 H         1 UNK         0.0300 
     44 H44        -8.6743   -7.3879   36.7174 H         1 UNK         0.0300 
     45 H45        -4.9979  -11.4840   39.0531 H         1 UNK         0.0300 
@<TRIPOS>BOND
     1    1    2 ar   
     2    1    3 ar   
     3    1   28 1    
     4    2    5 ar   
     5    2   29 1    
     6    3    6 ar   
     7    3   30 1    
     8    4    7 ar   
     9    4    9 ar   
    10    4   31 1    
    11    5   10 ar   
    12    5   32 1    
    13    6   10 ar   
    14    6   33 1    
    15    7   11 ar   
    16    7   34 1    
    17    8    9 ar   
    18    8   12 ar   
    19    8   35 1    
    20    9   13 1    
    21   10   26 1    
    22   11   12 ar   
    23   11   24 1    
    24   12   25 1    
    25   13   20 ar   
    26   13   23 ar   
    27   14   21 ar   
    28   14   23 ar   
    29   14   27 1    
    30   15   19 1    
    31   15   22 2    
    32   15   27 1    
    33   16   19 1    
    34   16   36 1    
    35   16   37 1    
    36   16   38 1    
    37   17   24 1    
    38   17   39 1    
    39   17   40 1    
    40   17   41 1    
    41   18   25 1    
    42   18   42 1    
    43   18   43 1    
    44   18   44 1    
    45   19   26 1    
    46   19   45 1    
    47   20   21 ar   
    48   22   23 1    
@<TRIPOS>SUBSTRUCTURE
     1 UNK         1 GROUP             0       ****    0 ROOT    
@<TRIPOS>MOLECULE
ZINC09684321_249
45   48    1
SMALL
USER_CHARGES


@<TRIPOS>ATOM
      1 C1         -7.8850   -5.9944   38.4170 C.ar      1 UNK        -0.1150 
      2 C2         -6.5523   -4.1887   39.3726 C.ar      1 UNK        -0.1150 
      3 C3         -6.9131   -5.5506   39.3377 C.ar      1 UNK         0.0000 
      4 C4         -8.4931   -5.0872   37.5183 C.ar      1 UNK         0.0850 
      5 C5         -7.1551   -3.2617   38.4891 C.ar      1 UNK         0.0850 
      6 C6         -8.1210   -3.7248   37.5664 C.ar      1 UNK         0.0850 
      7 C7         -6.2694   -6.4979   40.2403 C.2       1 UNK         0.5614 
      8 C8         -5.9228   -8.3439   41.1844 C.2       1 UNK         0.7139 
      9 C9         -4.6570  -10.9590   38.6343 C.ar      1 UNK        -0.1717 
     10 C10        -3.3855   -9.0400   35.7401 C.2       1 UNK        -0.1882 
     11 C11        -3.9430   -8.0067   35.1044 C.2       1 UNK        -0.1075 
     12 C12        -5.8118  -10.2761   38.8117 C.ar      1 UNK         0.1225 
     13 C13        -3.7354  -10.6009   37.5577 C.ar      1 UNK         0.5567 
     14 C14        -5.3532   -8.8773   37.0087 C.ar      1 UNK         0.4890 
     15 C15        -9.8173   -6.8208   36.5034 C.3       1 UNK         0.1100 
     16 C16        -5.9064   -1.4193   39.4016 C.3       1 UNK         0.1100 
     17 C17        -8.0123   -2.6699   35.4965 C.3       1 UNK         0.1100 
     18 C18        -6.7752  -10.6085   39.9377 C.3       1 UNK         0.0475 
     19 N19        -5.1094   -6.3661   40.8921 N.2       1 UNK        -0.3751 
     20 N20        -4.8833   -7.5761   41.5108 N.2       1 UNK        -0.3751 
     21 N21        -6.1654   -9.2280   37.9544 N.2       1 UNK        -0.4815 
     22 N22        -4.1372   -9.5446   36.7979 N.pl3     1 UNK        -0.0493 
     23 O23        -2.6812  -11.2056   37.3548 O.2       1 UNK        -0.5000 
     24 O24        -6.8522   -7.7096   40.4298 O.3       1 UNK        -0.3726 
     25 O25        -9.4325   -5.4561   36.5773 O.3       1 UNK        -0.2850 
     26 O26        -6.8497   -1.9164   38.4641 O.3       1 UNK        -0.2850 
     27 O27        -8.7194   -2.8352   36.7131 O.3       1 UNK        -0.2850 
     28 S28        -5.4997   -7.5464   35.7706 S.3       1 UNK        -0.0150 
     29 S29        -6.1760  -10.0434   41.5598 S.3       1 UNK        -0.3200 
     30 H30        -8.1388   -7.0431   38.4039 H         1 UNK         0.1150 
     31 H31        -5.8050   -3.8793   40.0876 H         1 UNK         0.1150 
     32 H32        -4.3910  -11.7648   39.3029 H         1 UNK         0.1150 
     33 H33        -2.4336   -9.5080   35.5242 H         1 UNK         0.1150 
     34 H34        -3.5218   -7.4734   34.2642 H         1 UNK         0.1150 
     35 H35       -10.5650   -6.9408   35.7194 H         1 UNK         0.0300 
     36 H36       -10.2641   -7.1608   37.4388 H         1 UNK         0.0300 
     37 H37        -8.9704   -7.4610   36.2519 H         1 UNK         0.0300 
     38 H38        -5.7873   -0.3457   39.2565 H         1 UNK         0.0300 
     39 H39        -4.9270   -1.8798   39.2654 H         1 UNK         0.0300 
     40 H40        -6.2423   -1.5776   40.4273 H         1 UNK         0.0300 
     41 H41        -8.5228   -1.9343   34.8754 H         1 UNK         0.0300 
     42 H42        -7.9651   -3.6061   34.9384 H         1 UNK         0.0300 
     43 H43        -6.9959   -2.3146   35.6716 H         1 UNK         0.0300 
     44 H44        -6.9318  -11.6867   39.9767 H         1 UNK         0.0600 
     45 H45        -7.7498  -10.1593   39.7418 H         1 UNK         0.0600 
@<TRIPOS>BOND
     1    1    3 ar   
     2    1    4 ar   
     3    1   30 1    
     4    2    3 ar   
     5    2    5 ar   
     6    2   31 1    
     7    3    7 1    
     8    4    6 ar   
     9    4   25 1    
    10    5    6 ar   
    11    5   26 1    
    12    6   27 1    
    13    7   19 2    
    14    7   24 1    
    15    8   20 2    
    16    8   24 1    
    17    8   29 1    
    18    9   12 ar   
    19    9   13 ar   
    20    9   32 1    
    21   10   11 2    
    22   10   22 1    
    23   10   33 1    
    24   11   28 1    
    25   11   34 1    
    26   12   18 1    
    27   12   21 ar   
    28   13   22 ar   
    29   13   23 2    
    30   14   21 ar   
    31   14   22 ar   
    32   14   28 1    
    33   15   25 1    
    34   15   35 1    
    35   15   36 1    
    36   15   37 1    
    37   16   26 1    
    38   16   38 1    
    39   16   39 1    
    40   16   40 1    
    41   17   27 1    
    42   17   41 1    
    43   17   42 1    
    44   17   43 1    
    45   18   29 1    
    46   18   44 1    
    47   18   45 1    
    48   19   20 1    
@<TRIPOS>SUBSTRUCTURE
     1 UNK         1 GROUP             0       ****    0 ROOT    
@<TRIPOS>MOLECULE
ZINC09892255_2
52   55    1
SMALL
USER_CHARGES


@<TRIPOS>ATOM
      1 C1         -4.4677  -11.2019   38.6642 C.ar      1 UNK        -0.1150 
      2 C2         -5.4597   -9.5751   37.1442 C.ar      1 UNK        -0.1150 
      3 C3         -4.1170  -12.0067   37.5640 C.ar      1 UNK        -0.1150 
      4 C4         -5.1046  -10.3823   36.0469 C.ar      1 UNK        -0.1150 
      5 C5         -7.7423   -6.1585   38.8872 C.ar      1 UNK        -0.1150 
      6 C6         -6.7017   -4.0548   39.5115 C.ar      1 UNK        -0.1150 
      7 C7         -6.9310   -5.4184   39.7712 C.ar      1 UNK        -0.1150 
      8 C8         -5.1376   -9.9756   38.4608 C.ar      1 UNK         0.0850 
      9 C9         -4.4272  -11.6100   36.2485 C.ar      1 UNK         0.0850 
     10 C10        -8.2899   -5.5579   37.7313 C.ar      1 UNK         0.0850 
     11 C11        -7.2457   -3.4212   38.3658 C.ar      1 UNK         0.0850 
     12 C12        -8.0291   -4.1946   37.4602 C.ar      1 UNK         0.0850 
     13 C13        -6.4217   -9.5575   40.4739 C.2       1 UNK         0.6225 
     14 C14        -5.0557   -7.9019   39.8199 C.2       1 UNK         0.7212 
     15 C15        -7.9250   -7.9475   41.9355 C.3       1 UNK         0.0475 
     16 C16        -6.3085   -6.0602   41.0124 C.3       1 UNK         0.2722 
     17 C17        -6.5519   -8.4837   41.5271 C.3       1 UNK         0.0625 
     18 C18        -4.3345  -12.0817   33.8974 C.3       1 UNK         0.1100 
     19 C19        -9.3596   -7.6126   37.0591 C.3       1 UNK         0.1100 
     20 C20        -6.2698   -1.3056   39.0073 C.3       1 UNK         0.1100 
     21 C21        -7.9058   -2.7052   35.5714 C.3       1 UNK         0.1100 
     22 N22        -5.5069   -9.1657   39.5742 N.am      1 UNK        -0.3300 
     23 N23        -5.8419   -7.4374   40.8269 N.pl3     1 UNK        -0.2947 
     24 O24        -7.0724  -10.6006   40.4833 O.2       1 UNK        -0.5000 
     25 O25        -4.0443  -12.4603   35.2351 O.3       1 UNK        -0.2850 
     26 O26        -9.0698   -6.2432   36.8207 O.3       1 UNK        -0.2850 
     27 O27        -7.0609   -2.0756   38.1141 O.3       1 UNK        -0.2850 
     28 O28        -8.6052   -3.6968   36.3081 O.3       1 UNK        -0.2850 
     29 S29        -3.8693   -7.0411   39.0105 S.2       1 UNK        -0.4762 
     30 S30        -7.6098   -6.1956   42.2686 S.3       1 UNK        -0.3350 
     31 H31        -4.2216  -11.5366   39.6614 H         1 UNK         0.1150 
     32 H32        -5.9731   -8.6413   36.9636 H         1 UNK         0.1150 
     33 H33        -3.6040  -12.9430   37.7279 H         1 UNK         0.1150 
     34 H34        -5.3630  -10.0346   35.0586 H         1 UNK         0.1150 
     35 H35        -7.9335   -7.1949   39.1040 H         1 UNK         0.1150 
     36 H36        -6.0988   -3.5071   40.2183 H         1 UNK         0.1150 
     37 H37        -8.6496   -8.0411   41.1261 H         1 UNK         0.0600 
     38 H38        -8.3285   -8.4571   42.8108 H         1 UNK         0.0600 
     39 H39        -5.4955   -5.4418   41.3974 H         1 UNK         0.0600 
     40 H40        -5.9785   -8.7701   42.4099 H         1 UNK         0.0600 
     41 H41        -3.9665  -12.8504   33.2180 H         1 UNK         0.0300 
     42 H42        -3.8417  -11.1452   33.6324 H         1 UNK         0.0300 
     43 H43        -5.4087  -11.9847   33.7343 H         1 UNK         0.0300 
     44 H44        -9.9847   -7.9916   36.2509 H         1 UNK         0.0300 
     45 H45        -9.9093   -7.7479   37.9916 H         1 UNK         0.0300 
     46 H46        -8.4512   -8.2157   37.0816 H         1 UNK         0.0300 
     47 H47        -6.2217   -0.2782   38.6469 H         1 UNK         0.0300 
     48 H48        -5.2475   -1.6822   39.0617 H         1 UNK         0.0300 
     49 H49        -6.7040   -1.2820   40.0078 H         1 UNK         0.0300 
     50 H50        -8.2181   -2.7520   34.5283 H         1 UNK         0.0300 
     51 H51        -6.8255   -2.8572   35.5975 H         1 UNK         0.0300 
     52 H52        -8.1426   -1.7048   35.9342 H         1 UNK         0.0300 
@<TRIPOS>BOND
     1    1    3 ar   
     2    1    8 ar   
     3    1   31 1    
     4    2    4 ar   
     5    2    8 ar   
     6    2   32 1    
     7    3    9 ar   
     8    3   33 1    
     9    4    9 ar   
    10    4   34 1    
    11    5    7 ar   
    12    5   10 ar   
    13    5   35 1    
    14    6    7 ar   
    15    6   11 ar   
    16    6   36 1    
    17    7   16 1    
    18    8   22 1    
    19    9   25 1    
    20   10   12 ar   
    21   10   26 1    
    22   11   12 ar   
    23   11   27 1    
    24   12   28 1    
    25   13   17 1    
    26   13   22 am   BACKBONE|DICT|INTERRES
    27   13   24 2    
    28   14   22 am   BACKBONE|DICT|INTERRES
    29   14   23 1    
    30   14   29 2    
    31   15   17 1    
    32   15   30 1    
    33   15   37 1    
    34   15   38 1    
    35   16   23 1    
    36   16   30 1    
    37   16   39 1    
    38   17   23 1    
    39   17   40 1    
    40   18   25 1    
    41   18   41 1    
    42   18   42 1    
    43   18   43 1    
    44   19   26 1    
    45   19   44 1    
    46   19   45 1    
    47   19   46 1    
    48   20   27 1    
    49   20   47 1    
    50   20   48 1    
    51   20   49 1    
    52   21   28 1    
    53   21   50 1    
    54   21   51 1    
    55   21   52 1    
@<TRIPOS>SUBSTRUCTURE
     1 UNK         1 GROUP             0       ****    0 ROOT    
@<TRIPOS>MOLECULE
ZINC09899835_10
49   52    1
SMALL
USER_CHARGES


@<TRIPOS>ATOM
      1 C1         -5.3744  -10.1619   34.9878 C.ar      1 UNK        -0.2222 
      2 C2         -5.8499  -11.4855   35.0645 C.ar      1 UNK        -0.0888 
      3 C3         -5.2729   -9.3724   36.1519 C.ar      1 UNK        -0.2243 
      4 C4         -6.2279  -12.0237   36.3089 C.ar      1 UNK        -0.3541 
      5 C5         -7.4965   -4.6061   39.7660 C.ar      1 UNK        -0.1150 
      6 C6         -8.0225   -6.6416   38.5484 C.ar      1 UNK        -0.1150 
      7 C7         -5.6453   -9.8851   37.4159 C.ar      1 UNK         0.1233 
      8 C8         -7.4676   -6.0091   39.6793 C.ar      1 UNK        -0.1150 
      9 C9         -5.6811   -9.3627   38.7527 C.ar      1 UNK        -0.1749 
     10 C10        -6.1260  -11.2298   37.4645 C.ar      1 UNK         0.2860 
     11 C11        -8.0204   -3.8294   38.7061 C.ar      1 UNK         0.0850 
     12 C12        -8.5433   -5.8920   37.4656 C.ar      1 UNK         0.0850 
     13 C13        -8.5210   -4.4679   37.5458 C.ar      1 UNK         0.0850 
     14 C14        -6.1550  -10.3588   39.5589 C.ar      1 UNK        -0.0293 
     15 C15        -6.9327   -6.8164   40.8292 C.2       1 UNK         0.6150 
     16 C16        -5.3175   -8.0139   39.3005 C.3       1 UNK         0.0059 
     17 C17        -6.3738  -10.2213   41.0327 C.3       1 UNK        -0.0050 
     18 C18        -5.7838   -8.8831   41.5497 C.3       1 UNK        -0.0500 
     19 C19        -7.6417   -1.7757   39.9054 C.3       1 UNK         0.1100 
     20 C20        -9.0552   -7.9201   36.2518 C.3       1 UNK         0.1100 
     21 C21        -8.9278   -4.0226   35.2058 C.3       1 UNK         0.1100 
     22 N22        -6.4250  -11.4774   38.7922 N.pl3     1 UNK        -0.4786 
     23 N23        -6.0335   -7.8000   40.5755 N.am      1 UNK        -0.1400 
     24 O24        -7.3465   -6.5725   41.9623 O.2       1 UNK        -0.5000 
     25 O25        -8.0625   -2.4495   38.7291 O.3       1 UNK        -0.2850 
     26 O26        -9.0940   -6.5029   36.3555 O.3       1 UNK        -0.2850 
     27 O27        -8.9960   -3.6188   36.5645 O.3       1 UNK        -0.2850 
     28 H28        -5.0847   -9.7499   34.0306 H         1 UNK         0.1489 
     29 H29        -5.9238  -12.0862   34.1683 H         1 UNK         0.1359 
     30 H30        -4.9094   -8.3585   36.0809 H         1 UNK         0.1699 
     31 H31        -6.5933  -13.0373   36.3711 H         1 UNK         0.1796 
     32 H32        -7.1068   -4.1474   40.6623 H         1 UNK         0.1150 
     33 H33        -8.0369   -7.7208   38.5377 H         1 UNK         0.1150 
     34 H34        -4.2469   -7.9802   39.5052 H         1 UNK         0.0600 
     35 H35        -5.4813   -7.2308   38.5616 H         1 UNK         0.0600 
     36 H36        -7.4449  -10.2460   41.2379 H         1 UNK         0.0600 
     37 H37        -5.9309  -11.0610   41.5695 H         1 UNK         0.0600 
     38 H38        -6.1623   -8.6631   42.5493 H         1 UNK         0.0600 
     39 H39        -4.7037   -8.9850   41.6603 H         1 UNK         0.0600 
     40 H40        -7.7806   -0.7028   39.7727 H         1 UNK         0.0300 
     41 H41        -6.5836   -1.9482   40.1066 H         1 UNK         0.0300 
     42 H42        -8.2309   -2.0788   40.7721 H         1 UNK         0.0300 
     43 H43        -9.4911   -8.2222   35.2997 H         1 UNK         0.0300 
     44 H44        -9.6364   -8.3948   37.0434 H         1 UNK         0.0300 
     45 H45        -8.0319   -8.2966   36.2764 H         1 UNK         0.0300 
     46 H46        -8.9373   -3.1357   34.5724 H         1 UNK         0.0300 
     47 H47        -9.7928   -4.6260   34.9294 H         1 UNK         0.0300 
     48 H48        -8.0114   -4.5722   34.9848 H         1 UNK         0.0300 
     49 H49        -6.7892  -12.3412   39.1651 H         1 UNK         0.3577 
@<TRIPOS>BOND
     1    1    2 ar   
     2    1    3 ar   
     3    1   28 1    
     4    2    4 ar   
     5    2   29 1    
     6    3    7 ar   
     7    3   30 1    
     8    4   10 ar   
     9    4   31 1    
    10    5    8 ar   
    11    5   11 ar   
    12    5   32 1    
    13    6    8 ar   
    14    6   12 ar   
    15    6   33 1    
    16    7    9 ar   
    17    7   10 ar   
    18    8   15 1    
    19    9   14 ar   
    20    9   16 1    
    21   10   22 ar   
    22   11   13 ar   
    23   11   25 1    
    24   12   13 ar   
    25   12   26 1    
    26   13   27 1    
    27   14   17 1    
    28   14   22 ar   
    29   15   23 am   BACKBONE|DICT|INTERRES
    30   15   24 2    
    31   16   23 1    
    32   16   34 1    
    33   16   35 1    
    34   17   18 1    
    35   17   36 1    
    36   17   37 1    
    37   18   23 1    
    38   18   38 1    
    39   18   39 1    
    40   19   25 1    
    41   19   40 1    
    42   19   41 1    
    43   19   42 1    
    44   20   26 1    
    45   20   43 1    
    46   20   44 1    
    47   20   45 1    
    48   21   27 1    
    49   21   46 1    
    50   21   47 1    
    51   21   48 1    
    52   22   49 1    
@<TRIPOS>SUBSTRUCTURE
     1 UNK         1 GROUP             0       ****    0 ROOT    
@<TRIPOS>MOLECULE
ZINC09901470_33
48   51    1
SMALL
USER_CHARGES


@<TRIPOS>ATOM
      1 C1         -5.8118  -11.0757   35.0724 C.ar      1 UNK        -0.2222 
      2 C2         -6.2486  -12.3778   35.3844 C.ar      1 UNK        -0.0888 
      3 C3         -5.6284  -10.1213   36.0944 C.ar      1 UNK        -0.2243 
      4 C4         -7.5697   -4.8641   39.1736 C.ar      1 UNK        -0.1150 
      5 C5         -6.5058  -12.7291   36.7230 C.ar      1 UNK        -0.3541 
      6 C6         -8.1936   -4.2577   38.0675 C.ar      1 UNK        -0.1150 
      7 C7         -8.2064   -7.0517   38.3246 C.ar      1 UNK        -0.1150 
      8 C8         -5.8782  -10.4444   37.4482 C.ar      1 UNK         0.1233 
      9 C9         -7.5491   -6.2666   39.2969 C.ar      1 UNK        -0.1150 
     10 C10        -5.8082   -9.7308   38.6922 C.ar      1 UNK        -0.1749 
     11 C11        -6.3223  -11.7716   37.7358 C.ar      1 UNK         0.2860 
     12 C12        -8.8164   -5.0454   37.0668 C.ar      1 UNK         0.0850 
     13 C13        -8.8231   -6.4535   37.1990 C.ar      1 UNK         0.0850 
     14 C14        -6.1871  -10.6015   39.6745 C.ar      1 UNK        -0.0293 
     15 C15        -6.9012   -6.9063   40.4941 C.2       1 UNK         0.6150 
     16 C16        -5.4260   -8.3129   39.0018 C.3       1 UNK         0.0059 
     17 C17        -6.2758  -10.2510   41.1264 C.3       1 UNK        -0.0050 
     18 C18        -5.6628   -8.8505   41.3873 C.3       1 UNK        -0.0500 
     19 C19        -8.0973   -2.6576   35.1323 C.3       1 UNK        -0.1800 
     20 C20        -9.3845   -8.5950   36.2545 C.3       1 UNK         0.1100 
     21 C21        -9.4375   -3.1214   35.7194 C.3       1 UNK         0.1400 
     22 N22        -6.4991  -11.8231   39.1068 N.pl3     1 UNK        -0.4786 
     23 N23        -6.0211   -7.9198   40.2965 N.am      1 UNK        -0.1400 
     24 O24        -7.2077   -6.5031   41.6160 O.2       1 UNK        -0.5000 
     25 O25        -9.4442   -7.1768   36.2013 O.3       1 UNK        -0.2850 
     26 O26        -9.4391   -4.5248   35.9491 O.3       1 UNK        -0.2850 
     27 H27        -5.6165  -10.8070   34.0432 H         1 UNK         0.1489 
     28 H28        -6.3862  -13.1051   34.5961 H         1 UNK         0.1359 
     29 H29        -5.2964   -9.1253   35.8431 H         1 UNK         0.1699 
     30 H30        -7.1046   -4.2501   39.9322 H         1 UNK         0.1150 
     31 H31        -6.8420  -13.7255   36.9654 H         1 UNK         0.1796 
     32 H32        -8.1769   -3.1811   38.0119 H         1 UNK         0.1150 
     33 H33        -8.2158   -8.1227   38.4586 H         1 UNK         0.1150 
     34 H34        -4.3420   -8.2392   39.0932 H         1 UNK         0.0600 
     35 H35        -5.6781   -7.6490   38.1763 H         1 UNK         0.0600 
     36 H36        -7.3238  -10.2477   41.4288 H         1 UNK         0.0600 
     37 H37        -5.7740  -11.0023   41.7371 H         1 UNK         0.0600 
     38 H38        -5.9497   -8.4902   42.3766 H         1 UNK         0.0600 
     39 H39        -4.5753   -8.9314   41.4078 H         1 UNK         0.0600 
     40 H40        -7.2698   -2.8257   35.8202 H         1 UNK         0.0600 
     41 H41        -7.8749   -3.1959   34.2108 H         1 UNK         0.0600 
     42 H42        -8.1242   -1.5935   34.8982 H         1 UNK         0.0600 
     43 H43        -9.8783   -9.0084   35.3754 H         1 UNK         0.0300 
     44 H44        -9.8994   -8.9837   37.1340 H         1 UNK         0.0300 
     45 H45        -8.3540   -8.9527   36.2505 H         1 UNK         0.0300 
     46 H46       -10.2252   -2.9176   34.9938 H         1 UNK         0.0300 
     47 H47        -9.7134   -2.5586   36.6115 H         1 UNK         0.0300 
     48 H48        -6.8111  -12.6251   39.6331 H         1 UNK         0.3577 
@<TRIPOS>BOND
     1    1    2 ar   
     2    1    3 ar   
     3    1   27 1    
     4    2    5 ar   
     5    2   28 1    
     6    3    8 ar   
     7    3   29 1    
     8    4    6 ar   
     9    4    9 ar   
    10    4   30 1    
    11    5   11 ar   
    12    5   31 1    
    13    6   12 ar   
    14    6   32 1    
    15    7    9 ar   
    16    7   13 ar   
    17    7   33 1    
    18    8   10 ar   
    19    8   11 ar   
    20    9   15 1    
    21   10   14 ar   
    22   10   16 1    
    23   11   22 ar   
    24   12   13 ar   
    25   12   26 1    
    26   13   25 1    
    27   14   17 1    
    28   14   22 ar   
    29   15   23 am   BACKBONE|DICT|INTERRES
    30   15   24 2    
    31   16   23 1    
    32   16   34 1    
    33   16   35 1    
    34   17   18 1    
    35   17   36 1    
    36   17   37 1    
    37   18   23 1    
    38   18   38 1    
    39   18   39 1    
    40   19   21 1    
    41   19   40 1    
    42   19   41 1    
    43   19   42 1    
    44   20   25 1    
    45   20   43 1    
    46   20   44 1    
    47   20   45 1    
    48   21   26 1    
    49   21   46 1    
    50   21   47 1    
    51   22   48 1    
@<TRIPOS>SUBSTRUCTURE
     1 UNK         1 GROUP             0       ****    0 ROOT    
@<TRIPOS>MOLECULE
ZINC09901636_15
48   51    1
SMALL
USER_CHARGES


@<TRIPOS>ATOM
      1 C1         -5.5445  -10.4085   34.9881 C.ar      1 UNK        -0.2222 
      2 C2         -6.0594  -11.7160   35.0836 C.ar      1 UNK        -0.0888 
      3 C3         -5.4124   -9.6086   36.1420 C.ar      1 UNK        -0.2243 
      4 C4         -7.4842   -4.7523   39.6299 C.ar      1 UNK        -0.1150 
      5 C5         -6.4466  -12.2272   36.3366 C.ar      1 UNK        -0.3541 
      6 C6         -7.9925   -4.0233   38.5409 C.ar      1 UNK        -0.1150 
      7 C7         -8.1189   -6.8137   38.5122 C.ar      1 UNK        -0.1150 
      8 C8         -5.7956  -10.0932   37.4139 C.ar      1 UNK         0.1233 
      9 C9         -7.5240   -6.1577   39.6111 C.ar      1 UNK        -0.1150 
     10 C10        -5.8153   -9.5512   38.7432 C.ar      1 UNK        -0.1749 
     11 C11        -6.3158  -11.4223   37.4816 C.ar      1 UNK         0.2860 
     12 C12        -8.5623   -4.6683   37.4243 C.ar      1 UNK         0.0850 
     13 C13        -8.6194   -6.0949   37.3963 C.ar      1 UNK         0.0850 
     14 C14        -6.3135  -10.5226   39.5643 C.ar      1 UNK        -0.0293 
     15 C15        -6.9992   -6.9432   40.7812 C.2       1 UNK         0.6150 
     16 C16        -5.4181   -8.2035   39.2701 C.3       1 UNK         0.0059 
     17 C17        -6.5249  -10.3581   41.0367 C.3       1 UNK        -0.0050 
     18 C18        -5.9020   -9.0270   41.5338 C.3       1 UNK        -0.0500 
     19 C19        -9.5745   -8.5992   34.8432 C.3       1 UNK        -0.1800 
     20 C20        -9.8782   -4.2778   35.4220 C.3       1 UNK         0.1100 
     21 C21        -9.0522   -8.1594   36.2110 C.3       1 UNK         0.1400 
     22 N22        -6.6172  -11.6434   38.8136 N.pl3     1 UNK        -0.4786 
     23 N23        -6.1250   -7.9530   40.5437 N.am      1 UNK        -0.1400 
     24 O24        -7.4032   -6.6653   41.9100 O.2       1 UNK        -0.5000 
     25 O25        -9.0060   -3.8087   36.4379 O.3       1 UNK        -0.2850 
     26 O26        -9.1400   -6.7430   36.2930 O.3       1 UNK        -0.2850 
     27 H27        -5.2491  -10.0162   34.0245 H         1 UNK         0.1489 
     28 H28        -6.1559  -12.3252   34.1955 H         1 UNK         0.1359 
     29 H29        -5.0214   -8.6059   36.0568 H         1 UNK         0.1699 
     30 H30        -7.0631   -4.2329   40.4794 H         1 UNK         0.1150 
     31 H31        -6.8417  -13.2285   36.4129 H         1 UNK         0.1796 
     32 H32        -7.9521   -2.9440   38.5602 H         1 UNK         0.1150 
     33 H33        -8.1658   -7.8913   38.5466 H         1 UNK         0.1150 
     34 H34        -4.3464   -8.1909   39.4704 H         1 UNK         0.0600 
     35 H35        -5.5678   -7.4282   38.5198 H         1 UNK         0.0600 
     36 H36        -7.5955  -10.3543   41.2449 H         1 UNK         0.0600 
     37 H37        -6.1008  -11.2002   41.5845 H         1 UNK         0.0600 
     38 H38        -6.2755   -8.7821   42.5294 H         1 UNK         0.0600 
     39 H39        -4.8246   -9.1531   41.6461 H         1 UNK         0.0600 
     40 H40       -10.6133   -8.2988   34.7063 H         1 UNK         0.0600 
     41 H41        -8.9853   -8.1541   34.0414 H         1 UNK         0.0600 
     42 H42        -9.5185   -9.6827   34.7372 H         1 UNK         0.0600 
     43 H43       -10.2877   -3.4235   34.8835 H         1 UNK         0.0300 
     44 H44       -10.7196   -4.8347   35.8360 H         1 UNK         0.0300 
     45 H45        -9.3481   -4.8928   34.6945 H         1 UNK         0.0300 
     46 H46        -8.0182   -8.4855   36.3224 H         1 UNK         0.0300 
     47 H47        -9.6471   -8.6255   36.9978 H         1 UNK         0.0300 
     48 H48        -7.0057  -12.4908   39.1992 H         1 UNK         0.3577 
@<TRIPOS>BOND
     1    1    2 ar   
     2    1    3 ar   
     3    1   27 1    
     4    2    5 ar   
     5    2   28 1    
     6    3    8 ar   
     7    3   29 1    
     8    4    6 ar   
     9    4    9 ar   
    10    4   30 1    
    11    5   11 ar   
    12    5   31 1    
    13    6   12 ar   
    14    6   32 1    
    15    7    9 ar   
    16    7   13 ar   
    17    7   33 1    
    18    8   10 ar   
    19    8   11 ar   
    20    9   15 1    
    21   10   14 ar   
    22   10   16 1    
    23   11   22 ar   
    24   12   13 ar   
    25   12   25 1    
    26   13   26 1    
    27   14   17 1    
    28   14   22 ar   
    29   15   23 am   BACKBONE|DICT|INTERRES
    30   15   24 2    
    31   16   23 1    
    32   16   34 1    
    33   16   35 1    
    34   17   18 1    
    35   17   36 1    
    36   17   37 1    
    37   18   23 1    
    38   18   38 1    
    39   18   39 1    
    40   19   21 1    
    41   19   40 1    
    42   19   41 1    
    43   19   42 1    
    44   20   25 1    
    45   20   43 1    
    46   20   44 1    
    47   20   45 1    
    48   21   26 1    
    49   21   46 1    
    50   21   47 1    
    51   22   48 1    
@<TRIPOS>SUBSTRUCTURE
     1 UNK         1 GROUP             0       ****    0 ROOT    
@<TRIPOS>MOLECULE
ZINC10280214_86
45   47    1
SMALL
USER_CHARGES


@<TRIPOS>ATOM
      1 C1         -9.4448  -20.5946   35.9316 C.ar      1 UNK         0.0055 
      2 C2        -10.0929  -21.4661   36.8276 C.ar      1 UNK        -0.3011 
      3 C3         -9.6907  -19.2085   35.9935 C.ar      1 UNK        -0.4461 
      4 C4        -10.9856  -20.9520   37.7872 C.ar      1 UNK        -0.1407 
      5 C5        -15.8356  -12.3849   38.6728 C.ar      1 UNK        -0.1150 
      6 C6        -14.2388  -10.9428   39.8062 C.ar      1 UNK        -0.1150 
      7 C7        -14.7587  -12.2262   39.5630 C.ar      1 UNK        -0.1150 
      8 C8        -10.5804  -18.6630   36.9438 C.ar      1 UNK         0.6314 
      9 C9        -16.3983  -11.2641   38.0157 C.ar      1 UNK         0.0850 
     10 C10       -14.7835   -9.8065   39.1787 C.ar      1 UNK         0.0850 
     11 C11       -15.8556   -9.9749   38.2539 C.ar      1 UNK         0.0850 
     12 C12       -11.2232  -19.5662   37.8416 C.ar      1 UNK        -0.1027 
     13 C13       -11.7775  -17.1814   38.1043 C.2       1 UNK         0.4008 
     14 C14       -13.0505  -15.4637   39.3532 C.2       1 UNK         0.7661 
     15 C15       -18.0610  -12.6285   36.9308 C.3       1 UNK         0.1100 
     16 C16       -14.8970   -7.3971   39.3370 C.3       1 UNK         0.1100 
     17 C17       -16.0311   -8.8538   36.2043 C.3       1 UNK         0.1100 
     18 C18       -14.1507  -13.4400   40.2344 C.3       1 UNK         0.1470 
     19 N19       -10.9044  -17.3164   37.0995 N.2       1 UNK        -0.5991 
     20 N20       -12.2128  -15.8670   38.3883 N.am      1 UNK        -0.4511 
     21 N21       -13.2768  -14.1469   39.3106 N.am      1 UNK        -0.5181 
     22 O22       -13.5644  -16.1913   40.1959 O.2       1 UNK        -0.6163 
     23 O23       -17.4652  -11.3576   37.1443 O.3       1 UNK        -0.2850 
     24 O24       -14.1812   -8.6103   39.5145 O.3       1 UNK        -0.2850 
     25 O25       -16.3814   -8.9005   37.5797 O.3       1 UNK        -0.2850 
     26 S26       -12.2779  -18.6697   38.9302 S.3       1 UNK        -0.0839 
     27 H27        -8.7583  -20.9894   35.1954 H         1 UNK         0.1296 
     28 H28        -9.9036  -22.5305   36.7782 H         1 UNK         0.1749 
     29 H29        -9.1947  -18.5406   35.3065 H         1 UNK         0.2114 
     30 H30       -11.4892  -21.6091   38.4811 H         1 UNK         0.2050 
     31 H31       -16.2131  -13.3829   38.5102 H         1 UNK         0.1150 
     32 H32       -13.4128  -10.8154   40.4909 H         1 UNK         0.1150 
     33 H33       -18.8983  -12.5204   36.2412 H         1 UNK         0.0300 
     34 H34       -18.4518  -13.0481   37.8588 H         1 UNK         0.0300 
     35 H35       -17.3555  -13.3297   36.4833 H         1 UNK         0.0300 
     36 H36       -14.8711   -7.0703   38.2974 H         1 UNK         0.0300 
     37 H37       -14.4244   -6.6156   39.9317 H         1 UNK         0.0300 
     38 H38       -15.9324   -7.4800   39.6710 H         1 UNK         0.0300 
     39 H39       -16.3076   -7.8821   35.7958 H         1 UNK         0.0300 
     40 H40       -16.5501   -9.6144   35.6217 H         1 UNK         0.0300 
     41 H41       -14.9565   -8.9803   36.0641 H         1 UNK         0.0300 
     42 H42       -13.5801  -13.1460   41.1165 H         1 UNK         0.0600 
     43 H43       -14.9574  -14.0866   40.5882 H         1 UNK         0.0600 
     44 H44       -11.8358  -15.1696   37.7723 H         1 UNK         0.2912 
     45 H45       -12.8424  -13.5853   38.5978 H         1 UNK         0.2912 
@<TRIPOS>BOND
     1    1    2 ar   
     2    1    3 ar   
     3    1   27 1    
     4    2    4 ar   
     5    2   28 1    
     6    3    8 ar   
     7    3   29 1    
     8    4   12 ar   
     9    4   30 1    
    10    5    7 ar   
    11    5    9 ar   
    12    5   31 1    
    13    6    7 ar   
    14    6   10 ar   
    15    6   32 1    
    16    7   18 1    
    17    8   12 ar   
    18    8   19 1    
    19    9   11 ar   
    20    9   23 1    
    21   10   11 ar   
    22   10   24 1    
    23   11   25 1    
    24   12   26 1    
    25   13   19 2    
    26   13   20 am   BACKBONE|DICT|INTERRES
    27   13   26 1    
    28   14   20 am   BACKBONE|DICT|INTERRES
    29   14   21 am   BACKBONE|DICT|INTERRES
    30   14   22 2    
    31   15   23 1    
    32   15   33 1    
    33   15   34 1    
    34   15   35 1    
    35   16   24 1    
    36   16   36 1    
    37   16   37 1    
    38   16   38 1    
    39   17   25 1    
    40   17   39 1    
    41   17   40 1    
    42   17   41 1    
    43   18   21 1    
    44   18   42 1    
    45   18   43 1    
    46   20   44 1    
    47   21   45 1    
@<TRIPOS>SUBSTRUCTURE
     1 UNK         1 GROUP             0       ****    0 ROOT    
@<TRIPOS>MOLECULE
ZINC10311745_41
44   47    1
SMALL
USER_CHARGES


@<TRIPOS>ATOM
      1 C1         -9.1030  -15.5234   38.0715 C.ar      1 UNK        -0.1150 
      2 C2         -8.1298  -13.6066   36.9502 C.ar      1 UNK        -0.1150 
      3 C3         -8.8737  -16.3118   36.9271 C.ar      1 UNK        -0.1150 
      4 C4         -7.8970  -14.3895   35.8033 C.ar      1 UNK        -0.1150 
      5 C5        -11.0270   -7.9679   39.4577 C.ar      1 UNK        -0.1150 
      6 C6        -12.0601   -7.6641   38.5525 C.ar      1 UNK        -0.1150 
      7 C7         -9.9201   -9.2893   37.7401 C.ar      1 UNK        -0.1150 
      8 C8         -8.7361  -14.1574   38.1048 C.ar      1 UNK         0.0000 
      9 C9         -8.2679  -15.7471   35.7886 C.ar      1 UNK        -0.1150 
     10 C10        -9.9511   -8.7807   39.0541 C.ar      1 UNK        -0.1150 
     11 C11       -12.0374   -8.1773   37.2313 C.ar      1 UNK         0.0850 
     12 C12       -10.9639   -9.0040   36.8258 C.ar      1 UNK         0.0850 
     13 C13        -9.1678  -10.3047   40.8902 C.ar      1 UNK         0.2950 
     14 C14        -9.5302  -12.3856   41.5171 C.ar      1 UNK         0.4175 
     15 C15        -8.9815  -13.3236   39.3021 C.2       1 UNK         0.2453 
     16 C16        -8.0237  -16.5908   34.5545 C.3       1 UNK        -0.0650 
     17 C17       -14.1176   -7.1064   36.6734 C.3       1 UNK         0.1100 
     18 C18       -10.0452  -10.4792   35.1642 C.3       1 UNK         0.1100 
     19 C19        -8.8398   -9.1207   40.0344 C.3       1 UNK         0.1100 
     20 N20        -9.5372  -10.2909   42.1797 N.2       1 UNK        -0.3633 
     21 N21        -9.7660  -11.6375   42.5693 N.2       1 UNK        -0.3633 
     22 N22        -8.8302  -11.9944   39.2688 N.2       1 UNK        -0.2500 
     23 N23        -9.1568  -11.5748   40.5055 N.pl3     1 UNK        -0.0934 
     24 O24       -13.0206   -7.9243   36.2971 O.3       1 UNK        -0.2850 
     25 O25       -10.9991   -9.4960   35.5372 O.3       1 UNK        -0.2850 
     26 S26        -9.5015  -14.0217   40.8782 S.3       1 UNK        -0.0028 
     27 H27        -9.5747  -15.9869   38.9248 H         1 UNK         0.1150 
     28 H28        -7.8345  -12.5676   36.9356 H         1 UNK         0.1150 
     29 H29        -9.1683  -17.3517   36.9277 H         1 UNK         0.1150 
     30 H30        -7.4331  -13.9423   34.9357 H         1 UNK         0.1150 
     31 H31       -11.0685   -7.5803   40.4661 H         1 UNK         0.1150 
     32 H32       -12.8666   -7.0383   38.9011 H         1 UNK         0.1150 
     33 H33        -9.0870   -9.9111   37.4534 H         1 UNK         0.1150 
     34 H34        -8.8592  -16.4935   33.8606 H         1 UNK         0.0600 
     35 H35        -7.1133  -16.2766   34.0431 H         1 UNK         0.0600 
     36 H36        -7.9152  -17.6439   34.8151 H         1 UNK         0.0600 
     37 H37       -14.7948   -7.0036   35.8257 H         1 UNK         0.0300 
     38 H38       -13.7902   -6.1051   36.9561 H         1 UNK         0.0300 
     39 H39       -14.6825   -7.5497   37.4944 H         1 UNK         0.0300 
     40 H40       -10.2676  -10.8311   34.1571 H         1 UNK         0.0300 
     41 H41       -10.0801  -11.3433   35.8298 H         1 UNK         0.0300 
     42 H42        -9.0346  -10.0694   35.1537 H         1 UNK         0.0300 
     43 H43        -7.9108   -9.3157   39.4983 H         1 UNK         0.0600 
     44 H44        -8.6493   -8.2635   40.6805 H         1 UNK         0.0600 
@<TRIPOS>BOND
     1    1    3 ar   
     2    1    8 ar   
     3    1   27 1    
     4    2    4 ar   
     5    2    8 ar   
     6    2   28 1    
     7    3    9 ar   
     8    3   29 1    
     9    4    9 ar   
    10    4   30 1    
    11    5    6 ar   
    12    5   10 ar   
    13    5   31 1    
    14    6   11 ar   
    15    6   32 1    
    16    7   10 ar   
    17    7   12 ar   
    18    7   33 1    
    19    8   15 1    
    20    9   16 1    
    21   10   19 1    
    22   11   12 ar   
    23   11   24 1    
    24   12   25 1    
    25   13   19 1    
    26   13   20 ar   
    27   13   23 ar   
    28   14   21 ar   
    29   14   23 ar   
    30   14   26 1    
    31   15   22 2    
    32   15   26 1    
    33   16   34 1    
    34   16   35 1    
    35   16   36 1    
    36   17   24 1    
    37   17   37 1    
    38   17   38 1    
    39   17   39 1    
    40   18   25 1    
    41   18   40 1    
    42   18   41 1    
    43   18   42 1    
    44   19   43 1    
    45   19   44 1    
    46   20   21 ar   
    47   22   23 1    
@<TRIPOS>SUBSTRUCTURE
     1 UNK         1 GROUP             0       ****    0 ROOT    
@<TRIPOS>MOLECULE
ZINC10311746_124
47   50    1
SMALL
USER_CHARGES


@<TRIPOS>ATOM
      1 C1         -9.1073  -15.4827   38.0425 C.ar      1 UNK        -0.1150 
      2 C2         -8.8969  -16.2580   36.8868 C.ar      1 UNK        -0.1150 
      3 C3        -11.0166   -7.9945   39.3897 C.ar      1 UNK        -0.1150 
      4 C4        -12.0331   -7.7200   38.4567 C.ar      1 UNK        -0.1150 
      5 C5         -8.1068  -13.5713   36.9403 C.ar      1 UNK        -0.1150 
      6 C6         -9.8417   -9.3074   37.7116 C.ar      1 UNK        -0.1150 
      7 C7         -8.7181  -14.1250   38.0898 C.ar      1 UNK         0.0000 
      8 C8         -9.9146   -8.7882   39.0200 C.ar      1 UNK        -0.1150 
      9 C9         -8.2905  -15.6927   35.7479 C.ar      1 UNK        -0.1150 
     10 C10        -7.8921  -14.3371   35.7752 C.ar      1 UNK        -0.1150 
     11 C11       -11.9687   -8.2455   37.1415 C.ar      1 UNK         0.0850 
     12 C12       -10.8701   -9.0552   36.7708 C.ar      1 UNK         0.0850 
     13 C13        -9.1394  -10.2831   40.8872 C.ar      1 UNK         0.2950 
     14 C14        -9.4879  -12.3672   41.5148 C.ar      1 UNK         0.4175 
     15 C15        -8.9492  -13.2989   39.2948 C.2       1 UNK         0.2453 
     16 C16        -8.0778  -16.5487   34.5123 C.3       1 UNK        -0.0650 
     17 C17        -7.2367  -13.6899   34.5680 C.3       1 UNK        -0.0650 
     18 C18       -14.0638   -7.2352   36.5283 C.3       1 UNK         0.1100 
     19 C19        -9.9210  -10.5769   35.1707 C.3       1 UNK         0.1100 
     20 C20        -8.8202   -9.0971   40.0298 C.3       1 UNK         0.1100 
     21 N21        -9.5029  -10.2721   42.1784 N.2       1 UNK        -0.3633 
     22 N22        -9.7219  -11.6206   42.5686 N.2       1 UNK        -0.3633 
     23 N23        -8.8001  -11.9697   39.2648 N.2       1 UNK        -0.2500 
     24 N24        -9.1227  -11.5532   40.5030 N.pl3     1 UNK        -0.0934 
     25 O25       -12.9343   -8.0215   36.1819 O.3       1 UNK        -0.2850 
     26 O26       -10.8651   -9.5649   35.4885 O.3       1 UNK        -0.2850 
     27 S27        -9.4560  -14.0026   40.8725 S.3       1 UNK        -0.0028 
     28 H28        -9.5825  -15.9487   38.8924 H         1 UNK         0.1150 
     29 H29        -9.2091  -17.2926   36.8809 H         1 UNK         0.1150 
     30 H30       -11.0904   -7.5984   40.3929 H         1 UNK         0.1150 
     31 H31       -12.8595   -7.1064   38.7794 H         1 UNK         0.1150 
     32 H32        -7.7970  -12.5366   36.9510 H         1 UNK         0.1150 
     33 H33        -8.9886   -9.9128   37.4492 H         1 UNK         0.1150 
     34 H34        -8.6204  -16.1340   33.6624 H         1 UNK         0.0600 
     35 H35        -7.0187  -16.5973   34.2586 H         1 UNK         0.0600 
     36 H36        -8.4303  -17.5687   34.6681 H         1 UNK         0.0600 
     37 H37        -6.3076  -14.2025   34.3180 H         1 UNK         0.0600 
     38 H38        -7.9005  -13.7331   33.7042 H         1 UNK         0.0600 
     39 H39        -6.9996  -12.6422   34.7544 H         1 UNK         0.0600 
     40 H40       -14.7250   -7.1586   35.6653 H         1 UNK         0.0300 
     41 H41       -13.7741   -6.2227   36.8116 H         1 UNK         0.0300 
     42 H42       -14.6325   -7.6912   37.3398 H         1 UNK         0.0300 
     43 H43       -10.1246  -10.9566   34.1696 H         1 UNK         0.0300 
     44 H44        -9.9906  -11.4189   35.8613 H         1 UNK         0.0300 
     45 H45        -8.9024  -10.1875   35.1742 H         1 UNK         0.0300 
     46 H46        -7.8748   -9.2749   39.5167 H         1 UNK         0.0600 
     47 H47        -8.6640   -8.2312   40.6739 H         1 UNK         0.0600 
@<TRIPOS>BOND
     1    1    2 ar   
     2    1    7 ar   
     3    1   28 1    
     4    2    9 ar   
     5    2   29 1    
     6    3    4 ar   
     7    3    8 ar   
     8    3   30 1    
     9    4   11 ar   
    10    4   31 1    
    11    5    7 ar   
    12    5   10 ar   
    13    5   32 1    
    14    6    8 ar   
    15    6   12 ar   
    16    6   33 1    
    17    7   15 1    
    18    8   20 1    
    19    9   10 ar   
    20    9   16 1    
    21   10   17 1    
    22   11   12 ar   
    23   11   25 1    
    24   12   26 1    
    25   13   20 1    
    26   13   21 ar   
    27   13   24 ar   
    28   14   22 ar   
    29   14   24 ar   
    30   14   27 1    
    31   15   23 2    
    32   15   27 1    
    33   16   34 1    
    34   16   35 1    
    35   16   36 1    
    36   17   37 1    
    37   17   38 1    
    38   17   39 1    
    39   18   25 1    
    40   18   40 1    
    41   18   41 1    
    42   18   42 1    
    43   19   26 1    
    44   19   43 1    
    45   19   44 1    
    46   19   45 1    
    47   20   46 1    
    48   20   47 1    
    49   21   22 ar   
    50   23   24 1    
@<TRIPOS>SUBSTRUCTURE
     1 UNK         1 GROUP             0       ****    0 ROOT    
@<TRIPOS>MOLECULE
ZINC10544496_85
50   53    1
SMALL
USER_CHARGES


@<TRIPOS>ATOM
      1 C1         -4.8653  -12.0927   33.6241 C.ar      1 UNK        -0.1490 
      2 C2         -4.0841  -10.9881   33.2216 C.ar      1 UNK        -0.1817 
      3 C3         -8.9523   -6.4189   38.8441 C.ar      1 UNK        -0.1150 
      4 C4         -5.4207  -12.1408   34.9215 C.ar      1 UNK        -0.3696 
      5 C5         -3.8521   -9.9215   34.1137 C.ar      1 UNK        -0.3290 
      6 C6         -9.4819   -5.6215   37.8161 C.ar      1 UNK        -0.1150 
      7 C7         -7.1760   -4.7913   39.1610 C.ar      1 UNK        -0.1150 
      8 C8         -7.7763   -6.0181   39.5076 C.ar      1 UNK        -0.1150 
      9 C9         -5.2023  -11.0865   35.8312 C.ar      1 UNK         0.4982 
     10 C10        -4.4103   -9.9811   35.4025 C.ar      1 UNK         0.2299 
     11 C11        -8.8779   -4.4040   37.4435 C.ar      1 UNK         0.0850 
     12 C12        -7.6996   -3.9717   38.1265 C.ar      1 UNK         0.0850 
     13 C13        -5.1141   -9.7371   37.4662 C.ar      1 UNK         0.3638 
     14 C14        -7.1954   -6.8384   40.6251 C.2       1 UNK         0.6150 
     15 C15        -4.9880   -9.3456   41.3289 C.3       1 UNK        -0.1200 
     16 C16        -4.6953   -9.9464   39.9415 C.3       1 UNK        -0.1200 
     17 C17        -6.4890   -9.0419   41.4869 C.3       1 UNK        -0.0500 
     18 C18        -6.7928   -8.7915   39.0844 C.3       1 UNK        -0.0500 
     19 C19        -5.3059   -9.0969   38.8076 C.3       1 UNK         0.0550 
     20 C20        -9.1785   -2.4144   36.0763 C.3       1 UNK         0.1100 
     21 C21        -5.9675   -2.3261   38.5036 C.3       1 UNK         0.1100 
     22 N22        -5.6389  -10.9155   37.1340 N.2       1 UNK        -0.6787 
     23 N23        -4.3894   -9.1416   36.5021 N.pl3     1 UNK        -0.6257 
     24 N24        -6.9243   -8.1496   40.4036 N.am      1 UNK        -0.1400 
     25 O25        -6.9749   -6.2866   41.7026 O.2       1 UNK        -0.5000 
     26 O26        -9.5273   -3.7467   36.4156 O.3       1 UNK        -0.2850 
     27 O27        -7.0897   -2.7868   37.7641 O.3       1 UNK        -0.2850 
     28 H28        -5.0403  -12.9074   32.9348 H         1 UNK         0.1514 
     29 H29        -3.6640  -10.9619   32.2248 H         1 UNK         0.1607 
     30 H30        -9.4495   -7.3391   39.1171 H         1 UNK         0.1150 
     31 H31        -6.0186  -12.9820   35.2351 H         1 UNK         0.2091 
     32 H32        -3.2559   -9.0757   33.8078 H         1 UNK         0.1984 
     33 H33       -10.3777   -5.9415   37.3044 H         1 UNK         0.1150 
     34 H34        -6.2954   -4.5038   39.7149 H         1 UNK         0.1150 
     35 H35        -4.6599  -10.0324   42.1102 H         1 UNK         0.0600 
     36 H36        -4.4137   -8.4278   41.4643 H         1 UNK         0.0600 
     37 H37        -3.6209  -10.0582   39.7929 H         1 UNK         0.0600 
     38 H38        -5.1148  -10.9530   39.8974 H         1 UNK         0.0600 
     39 H39        -7.0666   -9.9664   41.4442 H         1 UNK         0.0600 
     40 H40        -6.6837   -8.6200   42.4749 H         1 UNK         0.0600 
     41 H41        -7.1747   -8.1907   38.2614 H         1 UNK         0.0600 
     42 H42        -7.3753   -9.7140   39.0718 H         1 UNK         0.0600 
     43 H43        -4.7756   -8.1435   38.7944 H         1 UNK         0.0600 
     44 H44        -9.8974   -2.0332   35.3513 H         1 UNK         0.0300 
     45 H45        -8.1944   -2.3667   35.6095 H         1 UNK         0.0300 
     46 H46        -9.2125   -1.7546   36.9443 H         1 UNK         0.0300 
     47 H47        -5.6502   -1.3617   38.1071 H         1 UNK         0.0300 
     48 H48        -5.1228   -3.0105   38.4155 H         1 UNK         0.0300 
     49 H49        -6.2128   -2.1826   39.5567 H         1 UNK         0.0300 
     50 H50        -3.9310   -8.2502   36.5898 H         1 UNK         0.4072 
@<TRIPOS>BOND
     1    1    2 ar   
     2    1    4 ar   
     3    1   28 1    
     4    2    5 ar   
     5    2   29 1    
     6    3    6 ar   
     7    3    8 ar   
     8    3   30 1    
     9    4    9 ar   
    10    4   31 1    
    11    5   10 ar   
    12    5   32 1    
    13    6   11 ar   
    14    6   33 1    
    15    7    8 ar   
    16    7   12 ar   
    17    7   34 1    
    18    8   14 1    
    19    9   10 ar   
    20    9   22 ar   
    21   10   23 ar   
    22   11   12 ar   
    23   11   26 1    
    24   12   27 1    
    25   13   19 1    
    26   13   22 ar   
    27   13   23 ar   
    28   14   24 am   BACKBONE|DICT|INTERRES
    29   14   25 2    
    30   15   16 1    
    31   15   17 1    
    32   15   35 1    
    33   15   36 1    
    34   16   19 1    
    35   16   37 1    
    36   16   38 1    
    37   17   24 1    
    38   17   39 1    
    39   17   40 1    
    40   18   19 1    
    41   18   24 1    
    42   18   41 1    
    43   18   42 1    
    44   19   43 1    
    45   20   26 1    
    46   20   44 1    
    47   20   45 1    
    48   20   46 1    
    49   21   27 1    
    50   21   47 1    
    51   21   48 1    
    52   21   49 1    
    53   23   50 1    
@<TRIPOS>SUBSTRUCTURE
     1 UNK         1 GROUP             0       ****    0 ROOT    
@<TRIPOS>MOLECULE
ZINC10545449_117
50   53    1
SMALL
USER_CHARGES


@<TRIPOS>ATOM
      1 C1         -6.0142  -13.5759   33.3099 C.ar      1 UNK        -0.1490 
      2 C2         -6.4757  -14.8217   33.7871 C.ar      1 UNK        -0.1817 
      3 C3         -5.9528  -12.4585   34.1710 C.ar      1 UNK        -0.3696 
      4 C4         -6.8807  -14.9601   35.1301 C.ar      1 UNK        -0.3290 
      5 C5        -10.4104   -8.6296   38.6031 C.ar      1 UNK        -0.1150 
      6 C6         -8.5357   -7.1955   39.1829 C.ar      1 UNK        -0.1150 
      7 C7         -9.2851   -8.3631   39.4118 C.ar      1 UNK        -0.1150 
      8 C8         -6.3503  -12.5730   35.5183 C.ar      1 UNK         0.4982 
      9 C9         -6.8143  -13.8405   35.9775 C.ar      1 UNK         0.2299 
     10 C10       -10.7635   -7.7742   37.5275 C.ar      1 UNK         0.0850 
     11 C11        -9.9632   -6.6213   37.2748 C.ar      1 UNK         0.0850 
     12 C12        -8.8702   -6.3350   38.1245 C.ar      1 UNK         0.1800 
     13 C13        -6.8354  -12.3291   37.5694 C.ar      1 UNK         0.3638 
     14 C14        -8.9290   -9.2556   40.5657 C.2       1 UNK         0.6150 
     15 C15        -7.0882  -12.0124   41.4454 C.3       1 UNK        -0.1200 
     16 C16        -6.7244  -12.6455   40.0906 C.3       1 UNK        -0.1200 
     17 C17        -8.5503  -11.5309   41.4473 C.3       1 UNK        -0.0500 
     18 C18        -8.5503  -11.2194   39.0288 C.3       1 UNK        -0.0500 
     19 C19        -7.0949  -11.7164   38.9128 C.3       1 UNK         0.0550 
     20 C20       -12.6612   -9.1646   36.9735 C.3       1 UNK         0.1100 
     21 C21       -10.7074   -6.1958   35.0233 C.3       1 UNK         0.1100 
     22 N22        -6.3809  -11.6309   36.5322 N.2       1 UNK        -0.6787 
     23 N23        -7.1242  -13.6176   37.3071 N.pl3     1 UNK        -0.6257 
     24 N24        -8.7562  -10.5839   40.3418 N.am      1 UNK        -0.1400 
     25 O25        -8.8137   -8.7497   41.6805 O.2       1 UNK        -0.5000 
     26 O26       -11.8726   -8.0073   36.7385 O.3       1 UNK        -0.2850 
     27 O27       -10.1970   -5.7162   36.2585 O.3       1 UNK        -0.2850 
     28 Cl28       -7.9069   -4.9240   37.8663 Cl        1 UNK        -0.1800 
     29 H29        -5.7051  -13.4756   32.2783 H         1 UNK         0.1514 
     30 H30        -6.5182  -15.6711   33.1181 H         1 UNK         0.1607 
     31 H31        -5.6014  -11.5036   33.8129 H         1 UNK         0.2091 
     32 H32        -7.2346  -15.9115   35.4962 H         1 UNK         0.1984 
     33 H33       -10.9969   -9.5048   38.8364 H         1 UNK         0.1150 
     34 H34        -7.6960   -6.9564   39.8202 H         1 UNK         0.1150 
     35 H35        -6.9271  -12.7297   42.2512 H         1 UNK         0.0600 
     36 H36        -6.4266  -11.1685   41.6490 H         1 UNK         0.0600 
     37 H37        -5.6603  -12.8838   40.0584 H         1 UNK         0.0600 
     38 H38        -7.2568  -13.5921   40.0009 H         1 UNK         0.0600 
     39 H39        -9.2281  -12.3767   41.3270 H         1 UNK         0.0600 
     40 H40        -8.7951  -11.0960   42.4186 H         1 UNK         0.0600 
     41 H41        -8.7391  -10.5542   38.1879 H         1 UNK         0.0600 
     42 H42        -9.2470  -12.0503   38.9149 H         1 UNK         0.0600 
     43 H43        -6.4461  -10.8405   38.9806 H         1 UNK         0.0600 
     44 H44       -13.4715   -9.1987   36.2453 H         1 UNK         0.0300 
     45 H45       -13.1127   -9.1452   37.9662 H         1 UNK         0.0300 
     46 H46       -12.0765  -10.0780   36.8561 H         1 UNK         0.0300 
     47 H47       -10.4099   -5.5135   34.2274 H         1 UNK         0.0300 
     48 H48       -11.7972   -6.2249   35.0328 H         1 UNK         0.0300 
     49 H49       -10.3190   -7.1837   34.7701 H         1 UNK         0.0300 
     50 H50        -7.4822  -14.2753   37.9784 H         1 UNK         0.4072 
@<TRIPOS>BOND
     1    1    2 ar   
     2    1    3 ar   
     3    1   29 1    
     4    2    4 ar   
     5    2   30 1    
     6    3    8 ar   
     7    3   31 1    
     8    4    9 ar   
     9    4   32 1    
    10    5    7 ar   
    11    5   10 ar   
    12    5   33 1    
    13    6    7 ar   
    14    6   12 ar   
    15    6   34 1    
    16    7   14 1    
    17    8    9 ar   
    18    8   22 ar   
    19    9   23 ar   
    20   10   11 ar   
    21   10   26 1    
    22   11   12 ar   
    23   11   27 1    
    24   12   28 1    
    25   13   19 1    
    26   13   22 ar   
    27   13   23 ar   
    28   14   24 am   BACKBONE|DICT|INTERRES
    29   14   25 2    
    30   15   16 1    
    31   15   17 1    
    32   15   35 1    
    33   15   36 1    
    34   16   19 1    
    35   16   37 1    
    36   16   38 1    
    37   17   24 1    
    38   17   39 1    
    39   17   40 1    
    40   18   19 1    
    41   18   24 1    
    42   18   41 1    
    43   18   42 1    
    44   19   43 1    
    45   20   26 1    
    46   20   44 1    
    47   20   45 1    
    48   20   46 1    
    49   21   27 1    
    50   21   47 1    
    51   21   48 1    
    52   21   49 1    
    53   23   50 1    
@<TRIPOS>SUBSTRUCTURE
     1 UNK         1 GROUP             0       ****    0 ROOT    
@<TRIPOS>MOLECULE
ZINC10546390_83
50   53    1
SMALL
USER_CHARGES


@<TRIPOS>ATOM
      1 C1         -6.3076  -14.6583   33.5204 C.ar      1 UNK        -0.1490 
      2 C2         -6.8868  -15.8750   33.9409 C.ar      1 UNK        -0.1817 
      3 C3         -6.3065  -13.5338   34.3743 C.ar      1 UNK        -0.3696 
      4 C4         -7.4704  -15.9772   35.2200 C.ar      1 UNK        -0.3290 
      5 C5        -11.5564   -9.8878   38.3521 C.ar      1 UNK        -0.1150 
      6 C6         -9.8238   -8.2776   38.9431 C.ar      1 UNK        -0.1150 
      7 C7        -10.4885   -9.4958   39.1882 C.ar      1 UNK        -0.1150 
      8 C8         -6.8820  -13.6122   35.6586 C.ar      1 UNK         0.4982 
      9 C9         -7.4613  -14.8512   36.0617 C.ar      1 UNK         0.2299 
     10 C10       -11.9321   -9.0935   37.2420 C.ar      1 UNK         0.0850 
     11 C11       -10.1859   -7.4647   37.8419 C.ar      1 UNK         0.0850 
     12 C12       -11.2364   -7.8878   36.9965 C.ar      1 UNK         0.2000 
     13 C13        -7.6176  -13.3206   37.6269 C.ar      1 UNK         0.3638 
     14 C14       -10.1049  -10.3176   40.3861 C.2       1 UNK         0.6150 
     15 C15        -8.1322  -12.9108   41.4627 C.3       1 UNK        -0.1200 
     16 C16        -7.6454  -13.5546   40.1524 C.3       1 UNK        -0.1200 
     17 C17        -9.6210  -12.5325   41.3646 C.3       1 UNK        -0.0500 
     18 C18        -9.4996  -12.2904   38.9393 C.3       1 UNK        -0.0500 
     19 C19        -8.0092  -12.6881   38.9274 C.3       1 UNK         0.0550 
     20 C20       -13.6676  -10.6333   36.5972 C.3       1 UNK         0.1100 
     21 C21        -8.5229   -5.8125   38.3868 C.3       1 UNK         0.1100 
     22 N22        -6.9984  -12.6572   36.6543 N.2       1 UNK        -0.6787 
     23 N23        -7.9284  -14.5984   37.3392 N.pl3     1 UNK        -0.6257 
     24 N24        -9.8274  -11.6359   40.2177 N.am      1 UNK        -0.1400 
     25 O25       -10.0667   -9.7652   41.4841 O.2       1 UNK        -0.5000 
     26 O26       -12.9523   -9.4280   36.3751 O.3       1 UNK        -0.2850 
     27 O27        -9.5688   -6.2676   37.5415 O.3       1 UNK        -0.2850 
     28 Br28      -11.7328   -6.8078   35.5043 Br        1 UNK        -0.2000 
     29 H29        -5.8616  -14.5854   32.5377 H         1 UNK         0.1514 
     30 H30        -6.8820  -16.7297   33.2774 H         1 UNK         0.1607 
     31 H31        -5.8666  -12.6011   34.0580 H         1 UNK         0.2091 
     32 H32        -7.9138  -16.9066   35.5423 H         1 UNK         0.1984 
     33 H33       -12.0748  -10.8059   38.5822 H         1 UNK         0.1150 
     34 H34        -9.0345   -7.9874   39.6206 H         1 UNK         0.1150 
     35 H35        -7.9700  -13.5921   42.2990 H         1 UNK         0.0600 
     36 H36        -7.5430  -12.0172   41.6765 H         1 UNK         0.0600 
     37 H37        -6.5670  -13.7161   40.1886 H         1 UNK         0.0600 
     38 H38        -8.1019  -14.5400   40.0597 H         1 UNK         0.0600 
     39 H39       -10.2314  -13.4271   41.2354 H         1 UNK         0.0600 
     40 H40        -9.9518  -12.0863   42.3047 H         1 UNK         0.0600 
     41 H41        -9.6804  -11.6615   38.0689 H         1 UNK         0.0600 
     42 H42       -10.1315  -13.1696   38.8107 H         1 UNK         0.0600 
     43 H43        -7.4295  -11.7658   39.0066 H         1 UNK         0.0600 
     44 H44       -14.4259  -10.7472   35.8225 H         1 UNK         0.0300 
     45 H45       -14.1798  -10.6207   37.5601 H         1 UNK         0.0300 
     46 H46       -13.0111  -11.5028   36.5450 H         1 UNK         0.0300 
     47 H47        -8.1516   -4.8575   38.0151 H         1 UNK         0.0300 
     48 H48        -7.6846   -6.5105   38.3960 H         1 UNK         0.0300 
     49 H49        -8.8745   -5.6540   39.4073 H         1 UNK         0.0300 
     50 H50        -8.3976  -15.2318   37.9637 H         1 UNK         0.4072 
@<TRIPOS>BOND
     1    1    2 ar   
     2    1    3 ar   
     3    1   29 1    
     4    2    4 ar   
     5    2   30 1    
     6    3    8 ar   
     7    3   31 1    
     8    4    9 ar   
     9    4   32 1    
    10    5    7 ar   
    11    5   10 ar   
    12    5   33 1    
    13    6    7 ar   
    14    6   11 ar   
    15    6   34 1    
    16    7   14 1    
    17    8    9 ar   
    18    8   22 ar   
    19    9   23 ar   
    20   10   12 ar   
    21   10   26 1    
    22   11   12 ar   
    23   11   27 1    
    24   12   28 1    
    25   13   19 1    
    26   13   22 ar   
    27   13   23 ar   
    28   14   24 am   BACKBONE|DICT|INTERRES
    29   14   25 2    
    30   15   16 1    
    31   15   17 1    
    32   15   35 1    
    33   15   36 1    
    34   16   19 1    
    35   16   37 1    
    36   16   38 1    
    37   17   24 1    
    38   17   39 1    
    39   17   40 1    
    40   18   19 1    
    41   18   24 1    
    42   18   41 1    
    43   18   42 1    
    44   19   43 1    
    45   20   26 1    
    46   20   44 1    
    47   20   45 1    
    48   20   46 1    
    49   21   27 1    
    50   21   47 1    
    51   21   48 1    
    52   21   49 1    
    53   23   50 1    
@<TRIPOS>SUBSTRUCTURE
     1 UNK         1 GROUP             0       ****    0 ROOT    
@<TRIPOS>MOLECULE
ZINC10694746_43
47   50    1
SMALL
USER_CHARGES


@<TRIPOS>ATOM
      1 C1        -12.9766  -22.3543   34.3959 C.ar      1 UNK         0.0055 
      2 C2        -14.0331  -21.5591   33.9121 C.ar      1 UNK        -0.3011 
      3 C3        -12.6300  -22.3114   35.7609 C.ar      1 UNK        -0.4461 
      4 C4        -14.7436  -20.7218   34.7932 C.ar      1 UNK        -0.1407 
      5 C5        -13.3224  -21.0336   40.9347 C.2       1 UNK        -0.0738 
      6 C6        -16.8847  -16.3839   38.4882 C.ar      1 UNK        -0.1150 
      7 C7        -15.8561  -14.4583   39.5536 C.ar      1 UNK        -0.1150 
      8 C8        -13.3681  -20.6184   42.2360 C.2       1 UNK        -0.3255 
      9 C9        -13.9064  -20.1105   40.0085 C.2       1 UNK         0.0473 
     10 C10       -16.0491  -15.8518   39.4925 C.ar      1 UNK        -0.1150 
     11 C11       -13.3219  -21.4811   36.6675 C.ar      1 UNK         0.6314 
     12 C12       -17.4929  -15.5495   37.5332 C.ar      1 UNK         0.0850 
     13 C13       -16.4489  -13.5971   38.6112 C.ar      1 UNK         0.0850 
     14 C14       -17.2429  -14.1488   37.5659 C.ar      1 UNK         0.0850 
     15 C15       -14.3875  -20.6871   36.1542 C.ar      1 UNK        -0.1027 
     16 C16       -14.3847  -18.9712   40.6339 C.2       1 UNK         0.0213 
     17 C17       -13.9190  -20.4653   38.5765 C.2       1 UNK         0.3158 
     18 C18       -15.4025  -16.7420   40.5116 C.2       1 UNK         0.6150 
     19 C19       -19.4467  -15.5115   36.1487 C.3       1 UNK         0.1100 
     20 C20       -17.1647  -11.3145   38.3918 C.3       1 UNK         0.1100 
     21 C21       -16.8200  -13.2589   35.4645 C.3       1 UNK         0.1100 
     22 N22       -13.0734  -21.3517   38.0288 N.2       1 UNK        -0.5991 
     23 N23       -14.9744  -17.9137   40.0141 N.am      1 UNK        -0.3850 
     24 O24       -15.2359  -16.3505   41.6641 O.2       1 UNK        -0.5000 
     25 O25       -18.2771  -16.1848   36.5949 O.3       1 UNK        -0.2850 
     26 O26       -16.1680  -12.2560   38.7644 O.3       1 UNK        -0.2850 
     27 O27       -17.7164  -13.3454   36.5612 O.3       1 UNK        -0.2850 
     28 S28       -14.1288  -19.0686   42.3708 S.3       1 UNK         0.0328 
     29 S29       -15.0972  -19.7460   37.4586 S.3       1 UNK        -0.0839 
     30 H30       -12.4304  -22.9978   33.7201 H         1 UNK         0.1296 
     31 H31       -14.2977  -21.5937   32.8633 H         1 UNK         0.1749 
     32 H32       -11.8203  -22.9196   36.1334 H         1 UNK         0.2114 
     33 H33       -15.5569  -20.1085   34.4330 H         1 UNK         0.2050 
     34 H34       -12.8930  -21.9705   40.6087 H         1 UNK         0.1211 
     35 H35       -17.0860  -17.4444   38.4457 H         1 UNK         0.1150 
     36 H36       -15.2397  -14.0394   40.3372 H         1 UNK         0.1150 
     37 H37       -13.0028  -21.1208   43.1199 H         1 UNK         0.2618 
     38 H38       -19.2348  -14.8787   35.2872 H         1 UNK         0.0300 
     39 H39       -19.9030  -14.9074   36.9347 H         1 UNK         0.0300 
     40 H40       -20.1845  -16.2491   35.8336 H         1 UNK         0.0300 
     41 H41       -17.0841  -11.0510   37.3376 H         1 UNK         0.0300 
     42 H42       -17.0211  -10.3985   38.9643 H         1 UNK         0.0300 
     43 H43       -18.1736  -11.6750   38.5986 H         1 UNK         0.0300 
     44 H44       -17.2380  -12.6028   34.7013 H         1 UNK         0.0300 
     45 H45       -16.6521  -14.2372   35.0118 H         1 UNK         0.0300 
     46 H46       -15.8572  -12.8472   35.7711 H         1 UNK         0.0300 
     47 H47       -15.1234  -18.0140   39.0230 H         1 UNK         0.3000 
@<TRIPOS>BOND
     1    1    2 ar   
     2    1    3 ar   
     3    1   30 1    
     4    2    4 ar   
     5    2   31 1    
     6    3   11 ar   
     7    3   32 1    
     8    4   15 ar   
     9    4   33 1    
    10    5    8 2    
    11    5    9 1    
    12    5   34 1    
    13    6   10 ar   
    14    6   12 ar   
    15    6   35 1    
    16    7   10 ar   
    17    7   13 ar   
    18    7   36 1    
    19    8   28 1    
    20    8   37 1    
    21    9   16 2    
    22    9   17 1    
    23   10   18 1    
    24   11   15 ar   
    25   11   22 1    
    26   12   14 ar   
    27   12   25 1    
    28   13   14 ar   
    29   13   26 1    
    30   14   27 1    
    31   15   29 1    
    32   16   23 am   BACKBONE|DICT|INTERRES
    33   16   28 1    
    34   17   22 2    
    35   17   29 1    
    36   18   23 am   BACKBONE|DICT|INTERRES
    37   18   24 2    
    38   19   25 1    
    39   19   38 1    
    40   19   39 1    
    41   19   40 1    
    42   20   26 1    
    43   20   41 1    
    44   20   42 1    
    45   20   43 1    
    46   21   27 1    
    47   21   44 1    
    48   21   45 1    
    49   21   46 1    
    50   23   47 1    
@<TRIPOS>SUBSTRUCTURE
     1 UNK         1 GROUP             0       ****    0 ROOT    
@<TRIPOS>MOLECULE
ZINC10718494_181
45   47    1
SMALL
USER_CHARGES


@<TRIPOS>ATOM
      1 C1        -10.9670   -8.5906   38.3568 C.ar      1 UNK        -0.1150 
      2 C2         -9.7777   -6.6932   39.3161 C.ar      1 UNK        -0.1150 
      3 C3         -9.9596   -8.0892   39.2132 C.ar      1 UNK        -0.1150 
      4 C4        -11.7878   -7.7113   37.6108 C.ar      1 UNK         0.0850 
      5 C5        -10.5871   -5.7949   38.5800 C.ar      1 UNK         0.0850 
      6 C6        -11.5861   -6.3182   37.7249 C.ar      1 UNK         0.0850 
      7 C7         -8.7040  -13.6339   39.5478 C.ar      1 UNK        -0.1717 
      8 C8         -6.2193  -14.3527   35.6526 C.2       1 UNK        -0.1075 
      9 C9         -8.2239  -12.3758   39.4554 C.ar      1 UNK         0.0535 
     10 C10        -7.0315  -15.0098   36.4855 C.2       1 UNK        -0.0732 
     11 C11        -8.3459  -14.6497   38.5608 C.ar      1 UNK         0.5567 
     12 C12        -7.0353  -12.8929   37.5243 C.ar      1 UNK         0.4890 
     13 C13        -9.0857   -8.9939   40.0140 C.2       1 UNK         0.6250 
     14 C14        -7.4194  -16.4712   36.2987 C.3       1 UNK        -0.1800 
     15 C15       -13.0262   -9.5267   36.6279 C.3       1 UNK         0.1100 
     16 C16        -9.4604   -3.8758   39.4985 C.3       1 UNK         0.1100 
     17 C17       -11.7649   -4.8637   35.9014 C.3       1 UNK         0.1100 
     18 C18        -8.5890  -11.2992   40.4545 C.3       1 UNK         0.2590 
     19 N19        -7.3660  -12.0151   38.4166 N.2       1 UNK        -0.4815 
     20 N20        -7.5107  -14.2225   37.5577 N.pl3     1 UNK        -0.0493 
     21 O21        -8.7861  -15.7951   38.6600 O.2       1 UNK        -0.5000 
     22 O22        -8.2138   -8.5859   40.7828 O.2       1 UNK        -0.4300 
     23 O23       -12.7851   -8.1338   36.7552 O.3       1 UNK        -0.2850 
     24 O24       -10.4652   -4.4222   38.6576 O.3       1 UNK        -0.2850 
     25 O25       -12.4023   -5.4789   37.0089 O.3       1 UNK        -0.2850 
     26 O26        -9.3582  -10.2947   39.8143 O.3       1 UNK        -0.3300 
     27 S27        -5.9457  -12.6843   36.0841 S.3       1 UNK        -0.0150 
     28 H28       -11.1047   -9.6574   38.2786 H         1 UNK         0.1150 
     29 H29        -9.0072   -6.3272   39.9778 H         1 UNK         0.1150 
     30 H30        -9.3711  -13.9069   40.3522 H         1 UNK         0.1150 
     31 H31        -5.7491  -14.7672   34.7726 H         1 UNK         0.1150 
     32 H32        -7.0831  -17.0755   37.1423 H         1 UNK         0.0600 
     33 H33        -6.9638  -16.8825   35.3975 H         1 UNK         0.0600 
     34 H34        -8.4999  -16.5800   36.1975 H         1 UNK         0.0600 
     35 H35       -13.8490   -9.6866   35.9311 H         1 UNK         0.0300 
     36 H36       -13.3129   -9.9714   37.5819 H         1 UNK         0.0300 
     37 H37       -12.1535  -10.0474   36.2316 H         1 UNK         0.0300 
     38 H38        -9.4951   -2.7881   39.4383 H         1 UNK         0.0300 
     39 H39        -8.4640   -4.1910   39.1858 H         1 UNK         0.0300 
     40 H40        -9.6184   -4.1529   40.5416 H         1 UNK         0.0300 
     41 H41       -12.5035   -4.3091   35.3229 H         1 UNK         0.0300 
     42 H42       -11.3160   -5.6088   35.2429 H         1 UNK         0.0300 
     43 H43       -10.9916   -4.1609   36.2108 H         1 UNK         0.0300 
     44 H44        -7.6645  -10.9113   40.8849 H         1 UNK         0.0300 
     45 H45        -9.1695  -11.7245   41.2737 H         1 UNK         0.0300 
@<TRIPOS>BOND
     1    1    3 ar   
     2    1    4 ar   
     3    1   28 1    
     4    2    3 ar   
     5    2    5 ar   
     6    2   29 1    
     7    3   13 1    
     8    4    6 ar   
     9    4   23 1    
    10    5    6 ar   
    11    5   24 1    
    12    6   25 1    
    13    7    9 ar   
    14    7   11 ar   
    15    7   30 1    
    16    8   10 2    
    17    8   27 1    
    18    8   31 1    
    19    9   18 1    
    20    9   19 ar   
    21   10   14 1    
    22   10   20 1    
    23   11   20 ar   
    24   11   21 2    
    25   12   19 ar   
    26   12   20 ar   
    27   12   27 1    
    28   13   22 2    
    29   13   26 1    
    30   14   32 1    
    31   14   33 1    
    32   14   34 1    
    33   15   23 1    
    34   15   35 1    
    35   15   36 1    
    36   15   37 1    
    37   16   24 1    
    38   16   38 1    
    39   16   39 1    
    40   16   40 1    
    41   17   25 1    
    42   17   41 1    
    43   17   42 1    
    44   17   43 1    
    45   18   26 1    
    46   18   44 1    
    47   18   45 1    
@<TRIPOS>SUBSTRUCTURE
     1 UNK         1 GROUP             0       ****    0 ROOT    
@<TRIPOS>MOLECULE
ZINC11061086_149
43   45    1
SMALL
USER_CHARGES


@<TRIPOS>ATOM
      1 C1         -4.5611  -12.0432   35.1332 C.ar      1 UNK        -0.1150 
      2 C2         -5.3024  -12.8365   36.0289 C.ar      1 UNK        -0.1150 
      3 C3         -4.1970  -10.7327   35.4943 C.ar      1 UNK        -0.1150 
      4 C4         -5.6807  -12.3200   37.2842 C.ar      1 UNK        -0.1150 
      5 C5         -4.5743  -10.2177   36.7499 C.ar      1 UNK        -0.1150 
      6 C6         -7.4720   -4.1826   39.2095 C.ar      1 UNK        -0.1150 
      7 C7         -8.1267   -4.9547   36.6052 C.ar      1 UNK        -0.1150 
      8 C8         -6.6684   -9.9508   41.1731 C.2       1 UNK        -0.3376 
      9 C9         -5.3210  -11.0036   37.6572 C.ar      1 UNK         0.0000 
     10 C10        -7.1074   -5.4715   38.7553 C.ar      1 UNK         0.0850 
     11 C11        -8.1780   -3.2713   38.3788 C.ar      1 UNK         0.0850 
     12 C12        -8.5062   -3.6729   37.0480 C.ar      1 UNK         0.0850 
     13 C13        -7.4346   -5.8470   37.4384 C.ar      1 UNK         0.1800 
     14 C14        -5.8164   -8.9785   40.7115 C.2       1 UNK         0.1693 
     15 C15        -5.7059  -10.4446   38.9564 C.2       1 UNK         0.3009 
     16 C16        -6.2339   -6.4949   40.8759 C.2       1 UNK         0.5000 
     17 C17        -8.3011   -1.6614   40.1820 C.3       1 UNK         0.1100 
     18 C18        -9.5865   -1.5974   36.3658 C.3       1 UNK         0.1100 
     19 C19        -5.4351   -7.6950   41.4014 C.3       1 UNK        -0.0050 
     20 N20        -5.2760   -9.2784   39.4552 N.2       1 UNK        -0.4803 
     21 N21        -6.3935   -6.4171   39.5431 N.am      1 UNK        -0.3850 
     22 O22        -6.6667   -5.6674   41.6766 O.2       1 UNK        -0.5000 
     23 O23        -8.5453   -2.0178   38.8279 O.3       1 UNK        -0.2850 
     24 O24        -9.1802   -2.9297   36.0966 O.3       1 UNK        -0.2850 
     25 S25        -6.8306  -11.2661   40.0415 S.3       1 UNK         0.0010 
     26 Cl26       -6.9935   -7.4039   36.8278 Cl        1 UNK        -0.1800 
     27 H27        -4.2721  -12.4391   34.1701 H         1 UNK         0.1150 
     28 H28        -5.5824  -13.8428   35.7527 H         1 UNK         0.1150 
     29 H29        -3.6296  -10.1199   34.8088 H         1 UNK         0.1150 
     30 H30        -6.2473  -12.9502   37.9527 H         1 UNK         0.1150 
     31 H31        -4.2916   -9.2089   37.0141 H         1 UNK         0.1150 
     32 H32        -7.1943   -3.8915   40.2075 H         1 UNK         0.1150 
     33 H33        -8.3735   -5.2585   35.5992 H         1 UNK         0.1150 
     34 H34        -7.2169   -9.9725   42.1038 H         1 UNK         0.2317 
     35 H35        -8.7056   -0.6667   40.3688 H         1 UNK         0.0300 
     36 H36        -7.2330   -1.6257   40.3999 H         1 UNK         0.0300 
     37 H37        -8.7913   -2.3489   40.8731 H         1 UNK         0.0300 
     38 H38       -10.0682   -1.1883   35.4780 H         1 UNK         0.0300 
     39 H39        -8.7346   -0.9562   36.5953 H         1 UNK         0.0300 
     40 H40       -10.3152   -1.5558   37.1762 H         1 UNK         0.0300 
     41 H41        -5.5933   -7.7783   42.4769 H         1 UNK         0.0600 
     42 H42        -4.3737   -7.4869   41.2650 H         1 UNK         0.0600 
     43 H43        -6.0387   -7.2216   39.0355 H         1 UNK         0.3000 
@<TRIPOS>BOND
     1    1    2 ar   
     2    1    3 ar   
     3    1   27 1    
     4    2    4 ar   
     5    2   28 1    
     6    3    5 ar   
     7    3   29 1    
     8    4    9 ar   
     9    4   30 1    
    10    5    9 ar   
    11    5   31 1    
    12    6   10 ar   
    13    6   11 ar   
    14    6   32 1    
    15    7   12 ar   
    16    7   13 ar   
    17    7   33 1    
    18    8   14 2    
    19    8   25 1    
    20    8   34 1    
    21    9   15 1    
    22   10   13 ar   
    23   10   21 1    
    24   11   12 ar   
    25   11   23 1    
    26   12   24 1    
    27   13   26 1    
    28   14   19 1    
    29   14   20 1    
    30   15   20 2    
    31   15   25 1    
    32   16   19 1    
    33   16   21 am   BACKBONE|DICT|INTERRES
    34   16   22 2    
    35   17   23 1    
    36   17   35 1    
    37   17   36 1    
    38   17   37 1    
    39   18   24 1    
    40   18   38 1    
    41   18   39 1    
    42   18   40 1    
    43   19   41 1    
    44   19   42 1    
    45   21   43 1    
@<TRIPOS>SUBSTRUCTURE
     1 UNK         1 GROUP             0       ****    0 ROOT    
@<TRIPOS>MOLECULE
ZINC11163322_2
39   41    1
SMALL
USER_CHARGES


@<TRIPOS>ATOM
      1 C1         -4.9737  -10.0939   38.1011 C.ar      1 UNK        -0.3245 
      2 C2         -4.5345  -11.4039   38.3786 C.ar      1 UNK        -0.1228 
      3 C3         -4.7044  -10.9579   40.7836 C.ar      1 UNK        -0.3038 
      4 C4         -5.5389   -8.4995   41.3102 C.2       1 UNK        -0.5146 
      5 C5         -7.7868   -5.9005   38.6366 C.ar      1 UNK        -0.1150 
      6 C6         -6.7231   -3.9298   39.5965 C.ar      1 UNK        -0.1150 
      7 C7         -5.1489   -9.6393   40.5348 C.ar      1 UNK         0.2581 
      8 C8         -6.9457   -5.3234   39.6148 C.ar      1 UNK        -0.1150 
      9 C9         -5.2697   -9.2454   39.1789 C.ar      1 UNK         0.3230 
     10 C10        -8.3746   -5.1052   37.6239 C.ar      1 UNK         0.0850 
     11 C11        -7.3044   -3.1144   38.5967 C.ar      1 UNK         0.0850 
     12 C12        -8.1177   -3.7143   37.6104 C.ar      1 UNK         0.0850 
     13 C13        -4.4020  -11.8315   39.7168 C.ar      1 UNK         0.1446 
     14 C14        -5.8789   -7.5086   40.4134 C.2       1 UNK         0.1363 
     15 C15        -6.3211   -6.1347   40.7000 C.2       1 UNK         0.7000 
     16 C16        -9.4798   -7.0016   36.6322 C.3       1 UNK         0.1100 
     17 C17        -6.3580   -1.1092   39.5292 C.3       1 UNK         0.1100 
     18 C18        -8.0329   -2.9921   35.3941 C.3       1 UNK         0.1100 
     19 O19        -6.1482   -5.6703   41.8275 O.2       1 UNK        -0.4700 
     20 O20        -5.7084   -7.9420   39.1177 O.3       1 UNK        -0.3115 
     21 O21        -9.2021   -5.6095   36.6410 O.3       1 UNK        -0.2850 
     22 O22        -7.1175   -1.7498   38.5155 O.3       1 UNK        -0.2850 
     23 O23        -8.6856   -2.9168   36.6501 O.3       1 UNK        -0.2850 
     24 Cl24       -3.8663  -13.4343   40.0532 Cl        1 UNK        -0.1800 
     25 H25        -5.0796   -9.7426   37.0864 H         1 UNK         0.1955 
     26 H26        -4.2971  -12.0842   37.5724 H         1 UNK         0.1498 
     27 H27        -4.5937  -11.3053   41.7990 H         1 UNK         0.1930 
     28 H28        -5.5622   -8.4183   42.3874 H         1 UNK         0.2419 
     29 H29        -7.9816   -6.9606   38.6811 H         1 UNK         0.1150 
     30 H30        -6.0954   -3.5033   40.3649 H         1 UNK         0.1150 
     31 H31       -10.1340   -7.2298   35.7907 H         1 UNK         0.0300 
     32 H32        -9.9944   -7.3115   37.5426 H         1 UNK         0.0300 
     33 H33        -8.5697   -7.5906   36.5105 H         1 UNK         0.0300 
     34 H34        -6.3334   -0.0368   39.3357 H         1 UNK         0.0300 
     35 H35        -5.3271   -1.4654   39.5403 H         1 UNK         0.0300 
     36 H36        -6.8036   -1.2558   40.5141 H         1 UNK         0.0300 
     37 H37        -8.4959   -2.2892   34.7019 H         1 UNK         0.0300 
     38 H38        -8.1060   -3.9879   34.9564 H         1 UNK         0.0300 
     39 H39        -6.9783   -2.7275   35.4850 H         1 UNK         0.0300 
@<TRIPOS>BOND
     1    1    2 ar   
     2    1    9 ar   
     3    1   25 1    
     4    2   13 ar   
     5    2   26 1    
     6    3    7 ar   
     7    3   13 ar   
     8    3   27 1    
     9    4    7 1    
    10    4   14 2    
    11    4   28 1    
    12    5    8 ar   
    13    5   10 ar   
    14    5   29 1    
    15    6    8 ar   
    16    6   11 ar   
    17    6   30 1    
    18    7    9 ar   
    19    8   15 1    
    20    9   20 1    
    21   10   12 ar   
    22   10   21 1    
    23   11   12 ar   
    24   11   22 1    
    25   12   23 1    
    26   13   24 1    
    27   14   15 1    
    28   14   20 1    
    29   15   19 2    
    30   16   21 1    
    31   16   31 1    
    32   16   32 1    
    33   16   33 1    
    34   17   22 1    
    35   17   34 1    
    36   17   35 1    
    37   17   36 1    
    38   18   23 1    
    39   18   37 1    
    40   18   38 1    
    41   18   39 1    
@<TRIPOS>SUBSTRUCTURE
     1 UNK         1 GROUP             0       ****    0 ROOT    
@<TRIPOS>MOLECULE
ZINC11739664_15
43   45    1
SMALL
USER_CHARGES


@<TRIPOS>ATOM
      1 C1         -4.7789  -13.3766   36.0141 C.ar      1 UNK        -0.1150 
      2 C2         -5.5519  -12.2906   35.5631 C.ar      1 UNK        -0.1150 
      3 C3         -4.4097  -13.4588   37.3696 C.ar      1 UNK        -0.1150 
      4 C4         -8.6648   -6.8694   38.2801 C.ar      1 UNK        -0.1150 
      5 C5         -5.9552  -11.2872   36.4656 C.ar      1 UNK        -0.1150 
      6 C6         -4.8127  -12.4560   38.2732 C.ar      1 UNK        -0.1150 
      7 C7         -9.3607   -6.0453   37.3804 C.ar      1 UNK        -0.1150 
      8 C8         -7.6904   -4.8941   39.2993 C.ar      1 UNK        -0.1150 
      9 C9         -7.8109   -6.2999   39.2471 C.ar      1 UNK        -0.1150 
     10 C10        -5.5857  -11.3565   37.8300 C.ar      1 UNK         0.0850 
     11 C11        -9.2327   -4.6433   37.4147 C.ar      1 UNK         0.0850 
     12 C12        -8.3888   -4.0459   38.3994 C.ar      1 UNK         0.0850 
     13 C13        -6.6252   -8.5053   39.8757 C.ar      1 UNK        -0.0567 
     14 C14        -6.5807   -9.5282   40.7500 C.ar      1 UNK         0.0180 
     15 C15        -6.2310   -9.0411   38.5721 C.ar      1 UNK         0.5567 
     16 C16        -7.0541   -7.1278   40.2359 C.2       1 UNK         0.5850 
     17 C17        -6.9610   -9.5956   42.2183 C.3       1 UNK        -0.1800 
     18 C18        -9.7613   -2.6097   36.1933 C.3       1 UNK         0.1100 
     19 C19        -7.4301   -2.0859   39.4430 C.3       1 UNK         0.1100 
     20 N20        -6.1826  -10.6581   40.0970 N.pl3     1 UNK        -0.3717 
     21 N21        -6.0014  -10.3625   38.7644 N.pl3     1 UNK        -0.0850 
     22 O22        -6.1105   -8.4380   37.5062 O.2       1 UNK        -0.5000 
     23 O23        -6.8258   -6.6713   41.3594 O.2       1 UNK        -0.4700 
     24 O24        -9.9845   -3.9849   36.4599 O.3       1 UNK        -0.2850 
     25 O25        -8.2825   -2.6704   38.4683 O.3       1 UNK        -0.2850 
     26 H26        -4.4676  -14.1441   35.3196 H         1 UNK         0.1150 
     27 H27        -5.8361  -12.2242   34.5228 H         1 UNK         0.1150 
     28 H28        -3.8120  -14.2897   37.7154 H         1 UNK         0.1150 
     29 H29        -8.8044   -7.9381   38.2171 H         1 UNK         0.1150 
     30 H30        -6.5528  -10.4667   36.0952 H         1 UNK         0.1150 
     31 H31        -4.5044  -12.5322   39.3052 H         1 UNK         0.1150 
     32 H32       -10.0070   -6.4947   36.6410 H         1 UNK         0.1150 
     33 H33        -7.0443   -4.4831   40.0597 H         1 UNK         0.1150 
     34 H34        -7.9811   -9.2390   42.3663 H         1 UNK         0.0600 
     35 H35        -6.2946   -8.9664   42.8102 H         1 UNK         0.0600 
     36 H36        -6.8962  -10.6128   42.6049 H         1 UNK         0.0600 
     37 H37       -10.3105   -2.3296   35.2946 H         1 UNK         0.0300 
     38 H38        -8.7071   -2.3987   36.0088 H         1 UNK         0.0300 
     39 H39       -10.1303   -1.9818   37.0049 H         1 UNK         0.0300 
     40 H40        -7.4634   -1.0012   39.3425 H         1 UNK         0.0300 
     41 H41        -6.3934   -2.3961   39.3045 H         1 UNK         0.0300 
     42 H42        -7.7525   -2.3309   40.4559 H         1 UNK         0.0300 
     43 H43        -6.3544  -11.6054   40.4048 H         1 UNK         0.3537 
@<TRIPOS>BOND
     1    1    2 ar   
     2    1    3 ar   
     3    1   26 1    
     4    2    5 ar   
     5    2   27 1    
     6    3    6 ar   
     7    3   28 1    
     8    4    7 ar   
     9    4    9 ar   
    10    4   29 1    
    11    5   10 ar   
    12    5   30 1    
    13    6   10 ar   
    14    6   31 1    
    15    7   11 ar   
    16    7   32 1    
    17    8    9 ar   
    18    8   12 ar   
    19    8   33 1    
    20    9   16 1    
    21   10   21 1    
    22   11   12 ar   
    23   11   24 1    
    24   12   25 1    
    25   13   14 ar   
    26   13   15 ar   
    27   13   16 1    
    28   14   17 1    
    29   14   20 ar   
    30   15   21 ar   
    31   15   22 2    
    32   16   23 2    
    33   17   34 1    
    34   17   35 1    
    35   17   36 1    
    36   18   24 1    
    37   18   37 1    
    38   18   38 1    
    39   18   39 1    
    40   19   25 1    
    41   19   40 1    
    42   19   41 1    
    43   19   42 1    
    44   20   21 1    
    45   20   43 1    
@<TRIPOS>SUBSTRUCTURE
     1 UNK         1 GROUP             0       ****    0 ROOT    
@<TRIPOS>MOLECULE
ZINC11915659_34
43   45    1
SMALL
USER_CHARGES


@<TRIPOS>ATOM
      1 C1         -7.4938  -14.2775   37.7734 C.ar      1 UNK        -0.1150 
      2 C2         -7.6016  -12.1686   36.5585 C.ar      1 UNK        -0.1150 
      3 C3        -10.8512   -5.0877   37.1874 C.ar      1 UNK        -0.1150 
      4 C4        -10.5634   -6.2281   36.4156 C.ar      1 UNK        -0.1150 
      5 C5         -7.6727  -14.9796   36.5649 C.ar      1 UNK        -0.1150 
      6 C6         -7.7799  -12.8719   35.3514 C.ar      1 UNK        -0.1150 
      7 C7         -9.8514   -6.1414   39.1354 C.ar      1 UNK        -0.1150 
      8 C8         -7.4499  -12.8627   37.7834 C.ar      1 UNK         0.2000 
      9 C9         -9.5575   -7.2920   38.3646 C.ar      1 UNK         0.0850 
     10 C10       -10.5017   -5.0285   38.5487 C.ar      1 UNK         0.0850 
     11 C11        -9.9131   -7.3421   36.9985 C.ar      1 UNK         0.0850 
     12 C12        -7.8141  -14.2778   35.3540 C.ar      1 UNK         0.1800 
     13 C13        -6.6165  -12.0097   41.3230 C.ar      1 UNK        -0.1150 
     14 C14        -6.6775  -12.6714   40.1547 C.ar      1 UNK         0.0075 
     15 C15        -7.1987  -10.6600   41.4334 C.ar      1 UNK         0.4700 
     16 C16        -7.7998  -10.1246   40.1596 C.ar      1 UNK         0.4529 
     17 C17        -8.4089   -8.7487   40.0852 C.2       1 UNK         0.3238 
     18 C18       -10.4750   -3.7768   40.5968 C.3       1 UNK         0.1100 
     19 C19        -9.9557   -8.5815   34.9383 C.3       1 UNK         0.1100 
     20 N20        -7.8037  -10.8570   39.0774 N.2       1 UNK        -0.3551 
     21 N21        -7.2786  -12.1344   39.0014 N.pl3     1 UNK        -0.2441 
     22 N22        -8.9137   -8.4524   38.8690 N.am      1 UNK        -0.3850 
     23 O23        -7.1721  -10.0528   42.5052 O.2       1 UNK        -0.4700 
     24 O24        -8.4403   -7.9701   41.0378 O.2       1 UNK        -0.5000 
     25 O25       -10.8245   -3.8706   39.2228 O.3       1 UNK        -0.2850 
     26 O26        -9.5951   -8.4971   36.3090 O.3       1 UNK        -0.2850 
     27 Cl27       -8.0337  -15.1392   33.8770 Cl        1 UNK        -0.1800 
     28 H28        -7.4139  -14.8461   38.6866 H         1 UNK         0.1150 
     29 H29        -7.5744  -11.0892   36.5307 H         1 UNK         0.1150 
     30 H30       -11.3477   -4.2435   36.7319 H         1 UNK         0.1150 
     31 H31       -10.8536   -6.2194   35.3770 H         1 UNK         0.1150 
     32 H32        -7.7084  -16.0591   36.5657 H         1 UNK         0.1150 
     33 H33        -7.8906  -12.3327   34.4223 H         1 UNK         0.1150 
     34 H34        -9.5798   -6.1130   40.1766 H         1 UNK         0.1150 
     35 H35        -6.1362  -12.4334   42.1915 H         1 UNK         0.1150 
     36 H36        -6.2292  -13.6455   40.0281 H         1 UNK         0.1150 
     37 H37       -10.7893   -2.8071   40.9827 H         1 UNK         0.0300 
     38 H38        -9.3962   -3.8540   40.7405 H         1 UNK         0.0300 
     39 H39       -10.9742   -4.5448   41.1896 H         1 UNK         0.0300 
     40 H40        -9.6407   -9.5471   34.5431 H         1 UNK         0.0300 
     41 H41        -9.4635   -7.8079   34.3473 H         1 UNK         0.0300 
     42 H42       -11.0357   -8.5073   34.8047 H         1 UNK         0.0300 
     43 H43        -8.8083   -9.1925   38.1861 H         1 UNK         0.3000 
@<TRIPOS>BOND
     1    1    5 ar   
     2    1    8 ar   
     3    1   28 1    
     4    2    6 ar   
     5    2    8 ar   
     6    2   29 1    
     7    3    4 ar   
     8    3   10 ar   
     9    3   30 1    
    10    4   11 ar   
    11    4   31 1    
    12    5   12 ar   
    13    5   32 1    
    14    6   12 ar   
    15    6   33 1    
    16    7    9 ar   
    17    7   10 ar   
    18    7   34 1    
    19    8   21 1    
    20    9   11 ar   
    21    9   22 1    
    22   10   25 1    
    23   11   26 1    
    24   12   27 1    
    25   13   14 ar   
    26   13   15 ar   
    27   13   35 1    
    28   14   21 ar   
    29   14   36 1    
    30   15   16 ar   
    31   15   23 2    
    32   16   17 1    
    33   16   20 ar   
    34   17   22 am   BACKBONE|DICT|INTERRES
    35   17   24 2    
    36   18   25 1    
    37   18   37 1    
    38   18   38 1    
    39   18   39 1    
    40   19   26 1    
    41   19   40 1    
    42   19   41 1    
    43   19   42 1    
    44   20   21 ar   
    45   22   43 1    
@<TRIPOS>SUBSTRUCTURE
     1 UNK         1 GROUP             0       ****    0 ROOT    
@<TRIPOS>MOLECULE
ZINC12111622_34
43   45    1
SMALL
USER_CHARGES


@<TRIPOS>ATOM
      1 C1         -7.5142  -14.2850   37.7762 C.ar      1 UNK        -0.1150 
      2 C2         -7.6226  -12.1789   36.5557 C.ar      1 UNK        -0.1150 
      3 C3        -10.8531   -5.0855   37.1938 C.ar      1 UNK        -0.1150 
      4 C4        -10.5676   -6.2252   36.4200 C.ar      1 UNK        -0.1150 
      5 C5         -7.7015  -14.9894   36.5701 C.ar      1 UNK        -0.1150 
      6 C6         -7.8082  -12.8853   35.3513 C.ar      1 UNK        -0.1150 
      7 C7         -9.8514   -6.1428   39.1389 C.ar      1 UNK        -0.1150 
      8 C8         -7.4662  -12.8702   37.7816 C.ar      1 UNK         0.2000 
      9 C9         -9.5592   -7.2923   38.3661 C.ar      1 UNK         0.0850 
     10 C10       -10.5015   -5.0286   38.5546 C.ar      1 UNK         0.0850 
     11 C11        -9.9171   -7.3404   37.0005 C.ar      1 UNK         0.0850 
     12 C12        -7.8461  -14.2907   35.3584 C.ar      1 UNK         0.2200 
     13 C13        -6.6033  -12.0088   41.3117 C.ar      1 UNK        -0.1150 
     14 C14        -6.6753  -12.6737   40.1460 C.ar      1 UNK         0.0075 
     15 C15        -7.1820  -10.6577   41.4231 C.ar      1 UNK         0.4700 
     16 C16        -7.7937  -10.1253   40.1532 C.ar      1 UNK         0.4529 
     17 C17        -8.4013   -8.7484   40.0807 C.2       1 UNK         0.3238 
     18 C18       -10.4745   -3.7815   40.6056 C.3       1 UNK         0.1100 
     19 C19        -9.9653   -8.5778   34.9389 C.3       1 UNK         0.1100 
     20 N20        -7.8082  -10.8606   39.0731 N.2       1 UNK        -0.3551 
     21 N21        -7.2853  -12.1390   38.9963 N.pl3     1 UNK        -0.2441 
     22 N22        -8.9155   -8.4538   38.8681 N.am      1 UNK        -0.3850 
     23 O23        -7.1439  -10.0470   42.4924 O.2       1 UNK        -0.4700 
     24 O24        -8.4233   -7.9674   41.0317 O.2       1 UNK        -0.5000 
     25 O25       -10.8228   -3.8717   39.2311 O.3       1 UNK        -0.2850 
     26 O26        -9.6012   -8.4948   36.3088 O.3       1 UNK        -0.2850 
     27 F27        -8.0246  -14.9696   34.2020 F         1 UNK        -0.2200 
     28 H28        -7.4308  -14.8514   38.6904 H         1 UNK         0.1150 
     29 H29        -7.5927  -11.0996   36.5248 H         1 UNK         0.1150 
     30 H30       -11.3496   -4.2404   36.7400 H         1 UNK         0.1150 
     31 H31       -10.8592   -6.2150   35.3818 H         1 UNK         0.1150 
     32 H32        -7.7409  -16.0686   36.5708 H         1 UNK         0.1150 
     33 H33        -7.9209  -12.3509   34.4199 H         1 UNK         0.1150 
     34 H34        -9.5791   -6.1164   40.1799 H         1 UNK         0.1150 
     35 H35        -6.1165  -12.4309   42.1773 H         1 UNK         0.1150 
     36 H36        -6.2296  -13.6488   40.0181 H         1 UNK         0.1150 
     37 H37       -10.7899   -2.8135   40.9946 H         1 UNK         0.0300 
     38 H38        -9.3958   -3.8585   40.7498 H         1 UNK         0.0300 
     39 H39       -10.9737   -4.5517   41.1953 H         1 UNK         0.0300 
     40 H40        -9.6562   -9.5453   34.5433 H         1 UNK         0.0300 
     41 H41        -9.4706   -7.8064   34.3471 H         1 UNK         0.0300 
     42 H42       -11.0453   -8.4985   34.8076 H         1 UNK         0.0300 
     43 H43        -8.8158   -9.1946   38.1855 H         1 UNK         0.3000 
@<TRIPOS>BOND
     1    1    5 ar   
     2    1    8 ar   
     3    1   28 1    
     4    2    6 ar   
     5    2    8 ar   
     6    2   29 1    
     7    3    4 ar   
     8    3   10 ar   
     9    3   30 1    
    10    4   11 ar   
    11    4   31 1    
    12    5   12 ar   
    13    5   32 1    
    14    6   12 ar   
    15    6   33 1    
    16    7    9 ar   
    17    7   10 ar   
    18    7   34 1    
    19    8   21 1    
    20    9   11 ar   
    21    9   22 1    
    22   10   25 1    
    23   11   26 1    
    24   12   27 1    
    25   13   14 ar   
    26   13   15 ar   
    27   13   35 1    
    28   14   21 ar   
    29   14   36 1    
    30   15   16 ar   
    31   15   23 2    
    32   16   17 1    
    33   16   20 ar   
    34   17   22 am   BACKBONE|DICT|INTERRES
    35   17   24 2    
    36   18   25 1    
    37   18   37 1    
    38   18   38 1    
    39   18   39 1    
    40   19   26 1    
    41   19   40 1    
    42   19   41 1    
    43   19   42 1    
    44   20   21 ar   
    45   22   43 1    
@<TRIPOS>SUBSTRUCTURE
     1 UNK         1 GROUP             0       ****    0 ROOT    
@<TRIPOS>MOLECULE
ZINC12113933_154
58   60    1
SMALL
USER_CHARGES


@<TRIPOS>ATOM
      1 C1         -4.4081  -10.1795   37.0850 C.ar      1 UNK        -0.1150 
      2 C2         -4.7327   -7.7723   36.9588 C.ar      1 UNK        -0.1150 
      3 C3         -4.0003  -10.1944   35.7363 C.ar      1 UNK        -0.1150 
      4 C4         -4.3285   -7.7886   35.6114 C.ar      1 UNK        -0.1150 
      5 C5         -8.8560   -5.6338   39.0183 C.ar      1 UNK        -0.1150 
      6 C6         -6.6611   -4.5850   39.1182 C.ar      1 UNK        -0.1150 
      7 C7         -4.7821   -8.9695   37.7050 C.ar      1 UNK        -0.1150 
      8 C8         -7.7555   -5.1841   39.7751 C.ar      1 UNK        -0.1150 
      9 C9         -3.9616   -8.9944   34.9830 C.ar      1 UNK         0.0850 
     10 C10        -8.8485   -5.5500   37.6034 C.ar      1 UNK         0.0850 
     11 C11        -6.6238   -4.5007   37.7071 C.ar      1 UNK         0.0850 
     12 C12        -7.7077   -5.0049   36.9542 C.ar      1 UNK         0.0850 
     13 C13        -6.4600   -6.0984   41.7563 C.2       1 UNK         0.5000 
     14 C14        -6.7240   -8.4863   39.2508 C.3       1 UNK        -0.1200 
     15 C15        -4.3204   -8.1354   40.0664 C.3       1 UNK        -0.1200 
     16 C16        -7.1733   -8.2790   40.7099 C.3       1 UNK        -0.0500 
     17 C17        -4.8969   -7.9960   41.4893 C.3       1 UNK        -0.0500 
     18 C18        -5.2568   -8.9602   39.1525 C.3       1 UNK         0.0550 
     19 C19        -3.2422  -10.1240   32.9919 C.3       1 UNK         0.1100 
     20 C20       -11.0667   -6.4855   37.4591 C.3       1 UNK         0.1100 
     21 C21        -4.4093   -3.5588   37.7235 C.3       1 UNK         0.1100 
     22 C22        -7.8569   -6.1212   34.8620 C.3       1 UNK         0.1100 
     23 C23        -7.7367   -5.3744   41.2900 C.3       1 UNK        -0.0050 
     24 N24        -6.2268   -7.3839   41.3871 N.am      1 UNK        -0.1400 
     25 O25        -5.6449   -5.4494   42.4113 O.2       1 UNK        -0.5000 
     26 O26        -3.5870   -8.9193   33.6593 O.3       1 UNK        -0.2850 
     27 O27        -9.9055   -5.9741   36.8230 O.3       1 UNK        -0.2850 
     28 O28        -5.5569   -3.9808   37.0026 O.3       1 UNK        -0.2850 
     29 O29        -7.6011   -4.9247   35.5840 O.3       1 UNK        -0.2850 
     30 H30        -4.4371  -11.1072   37.6375 H         1 UNK         0.1150 
     31 H31        -5.0139   -6.8317   37.4088 H         1 UNK         0.1150 
     32 H32        -3.7257  -11.1423   35.3009 H         1 UNK         0.1150 
     33 H33        -4.3055   -6.8643   35.0522 H         1 UNK         0.1150 
     34 H34        -9.6933   -6.0642   39.5443 H         1 UNK         0.1150 
     35 H35        -5.8380   -4.2245   39.7170 H         1 UNK         0.1150 
     36 H36        -7.3799   -9.1995   38.7504 H         1 UNK         0.0600 
     37 H37        -6.8383   -7.5494   38.7094 H         1 UNK         0.0600 
     38 H38        -4.1737   -7.1371   39.6516 H         1 UNK         0.0600 
     39 H39        -3.3333   -8.5976   40.1027 H         1 UNK         0.0600 
     40 H40        -8.1995   -7.9170   40.7398 H         1 UNK         0.0600 
     41 H41        -7.1910   -9.2374   41.2307 H         1 UNK         0.0600 
     42 H42        -4.9732   -8.9724   41.9693 H         1 UNK         0.0600 
     43 H43        -4.2128   -7.4137   42.1093 H         1 UNK         0.0600 
     44 H44        -5.2303   -9.9874   39.5194 H         1 UNK         0.0600 
     45 H45        -2.9927   -9.9017   31.9545 H         1 UNK         0.0300 
     46 H46        -4.0750  -10.8287   32.9861 H         1 UNK         0.0300 
     47 H47        -2.3707  -10.5961   33.4475 H         1 UNK         0.0300 
     48 H48       -11.8037   -6.7480   36.7002 H         1 UNK         0.0300 
     49 H49       -11.5217   -5.7435   38.1165 H         1 UNK         0.0300 
     50 H50       -10.8443   -7.3895   38.0275 H         1 UNK         0.0300 
     51 H51        -3.6520   -3.2123   37.0205 H         1 UNK         0.0300 
     52 H52        -3.9746   -4.3788   38.2971 H         1 UNK         0.0300 
     53 H53        -4.6414   -2.7294   38.3927 H         1 UNK         0.0300 
     54 H54        -7.2388   -6.1363   33.9645 H         1 UNK         0.0300 
     55 H55        -8.8976   -6.1702   34.5424 H         1 UNK         0.0300 
     56 H56        -7.6181   -7.0162   35.4395 H         1 UNK         0.0300 
     57 H57        -7.7750   -4.3903   41.7584 H         1 UNK         0.0600 
     58 H58        -8.6184   -5.9099   41.6407 H         1 UNK         0.0600 
@<TRIPOS>BOND
     1    1    3 ar   
     2    1    7 ar   
     3    1   30 1    
     4    2    4 ar   
     5    2    7 ar   
     6    2   31 1    
     7    3    9 ar   
     8    3   32 1    
     9    4    9 ar   
    10    4   33 1    
    11    5    8 ar   
    12    5   10 ar   
    13    5   34 1    
    14    6    8 ar   
    15    6   11 ar   
    16    6   35 1    
    17    7   18 1    
    18    8   23 1    
    19    9   26 1    
    20   10   12 ar   
    21   10   27 1    
    22   11   12 ar   
    23   11   28 1    
    24   12   29 1    
    25   13   23 1    
    26   13   24 am   BACKBONE|DICT|INTERRES
    27   13   25 2    
    28   14   16 1    
    29   14   18 1    
    30   14   36 1    
    31   14   37 1    
    32   15   17 1    
    33   15   18 1    
    34   15   38 1    
    35   15   39 1    
    36   16   24 1    
    37   16   40 1    
    38   16   41 1    
    39   17   24 1    
    40   17   42 1    
    41   17   43 1    
    42   18   44 1    
    43   19   26 1    
    44   19   45 1    
    45   19   46 1    
    46   19   47 1    
    47   20   27 1    
    48   20   48 1    
    49   20   49 1    
    50   20   50 1    
    51   21   28 1    
    52   21   51 1    
    53   21   52 1    
    54   21   53 1    
    55   22   29 1    
    56   22   54 1    
    57   22   55 1    
    58   22   56 1    
    59   23   57 1    
    60   23   58 1    
@<TRIPOS>SUBSTRUCTURE
     1 UNK         1 GROUP             0       ****    0 ROOT    
@<TRIPOS>MOLECULE
ZINC12113946_194
54   56    1
SMALL
USER_CHARGES


@<TRIPOS>ATOM
      1 C1         -4.1588   -7.2552   35.5328 C.ar      1 UNK        -0.1150 
      2 C2         -3.6808   -8.3737   34.8244 C.ar      1 UNK        -0.1150 
      3 C3         -4.6128   -7.4038   36.8568 C.ar      1 UNK        -0.1150 
      4 C4         -3.6602   -9.6387   35.4430 C.ar      1 UNK        -0.1150 
      5 C5         -8.9133   -5.6823   39.0511 C.ar      1 UNK        -0.1150 
      6 C6         -6.7628   -4.5640   39.2718 C.ar      1 UNK        -0.1150 
      7 C7         -4.6002   -8.6712   37.4838 C.ar      1 UNK        -0.1150 
      8 C8         -7.8356   -5.2665   39.8577 C.ar      1 UNK        -0.1150 
      9 C9         -8.9049   -5.4586   37.6516 C.ar      1 UNK         0.0850 
     10 C10        -6.7219   -4.3422   37.8758 C.ar      1 UNK         0.0850 
     11 C11        -7.7813   -4.8113   37.0665 C.ar      1 UNK         0.0850 
     12 C12        -4.1182   -9.7901   36.7661 C.ar      1 UNK         0.2200 
     13 C13        -6.5102   -6.2999   41.7597 C.2       1 UNK         0.5000 
     14 C14        -6.6045   -8.4318   39.0209 C.3       1 UNK        -0.1200 
     15 C15        -4.2383   -8.0459   39.9252 C.3       1 UNK        -0.1200 
     16 C16        -7.0904   -8.3962   40.4829 C.3       1 UNK        -0.0500 
     17 C17        -4.8468   -8.0804   41.3406 C.3       1 UNK        -0.0500 
     18 C18        -5.1126   -8.8230   38.9126 C.3       1 UNK         0.0550 
     19 C19       -11.0925   -6.4494   37.4092 C.3       1 UNK         0.1100 
     20 C20        -4.5626   -3.2860   38.0111 C.3       1 UNK         0.1100 
     21 C21        -7.9669   -5.6748   34.8507 C.3       1 UNK         0.1100 
     22 C22        -7.8191   -5.6019   41.3472 C.3       1 UNK        -0.0050 
     23 N23        -6.2044   -7.5282   41.2691 N.am      1 UNK        -0.1400 
     24 O24        -5.7385   -5.6766   42.4881 O.2       1 UNK        -0.5000 
     25 O25        -9.9482   -5.8397   36.8310 O.3       1 UNK        -0.2850 
     26 O26        -5.6711   -3.7168   37.2355 O.3       1 UNK        -0.2850 
     27 O27        -7.6627   -4.5873   35.7120 O.3       1 UNK        -0.2850 
     28 F28        -4.0938  -11.0177   37.3381 F         1 UNK        -0.2200 
     29 H29        -4.1803   -6.2809   35.0644 H         1 UNK         0.1150 
     30 H30        -3.3306   -8.2621   33.8086 H         1 UNK         0.1150 
     31 H31        -4.9766   -6.5349   37.3853 H         1 UNK         0.1150 
     32 H32        -3.2945  -10.5001   34.9044 H         1 UNK         0.1150 
     33 H33        -9.7350   -6.1939   39.5269 H         1 UNK         0.1150 
     34 H34        -5.9576   -4.2321   39.9100 H         1 UNK         0.1150 
     35 H35        -7.2128   -9.1251   38.4388 H         1 UNK         0.0600 
     36 H36        -6.7597   -7.4526   38.5726 H         1 UNK         0.0600 
     37 H37        -4.1366   -7.0051   39.6147 H         1 UNK         0.0600 
     38 H38        -3.2296   -8.4603   39.9396 H         1 UNK         0.0600 
     39 H39        -8.1346   -8.0918   40.5259 H         1 UNK         0.0600 
     40 H40        -7.0665   -9.4024   40.9038 H         1 UNK         0.0600 
     41 H41        -4.8816   -9.1035   41.7172 H         1 UNK         0.0600 
     42 H42        -4.2052   -7.5317   42.0324 H         1 UNK         0.0600 
     43 H43        -5.0462   -9.8762   39.1885 H         1 UNK         0.0600 
     44 H44       -11.8209   -6.6580   36.6256 H         1 UNK         0.0300 
     45 H45       -11.5717   -5.7923   38.1363 H         1 UNK         0.0300 
     46 H46       -10.8413   -7.3983   37.8848 H         1 UNK         0.0300 
     47 H47        -3.8235   -2.8258   37.3554 H         1 UNK         0.0300 
     48 H48        -4.0786   -4.1239   38.5152 H         1 UNK         0.0300 
     49 H49        -4.8582   -2.5391   38.7493 H         1 UNK         0.0300 
     50 H50        -7.3562   -5.5982   33.9514 H         1 UNK         0.0300 
     51 H51        -9.0108   -5.6473   34.5383 H         1 UNK         0.0300 
     52 H52        -7.7545   -6.6417   35.3104 H         1 UNK         0.0300 
     53 H53        -7.9148   -4.6715   41.9082 H         1 UNK         0.0600 
     54 H54        -8.6732   -6.2151   41.6323 H         1 UNK         0.0600 
@<TRIPOS>BOND
     1    1    2 ar   
     2    1    3 ar   
     3    1   29 1    
     4    2    4 ar   
     5    2   30 1    
     6    3    7 ar   
     7    3   31 1    
     8    4   12 ar   
     9    4   32 1    
    10    5    8 ar   
    11    5    9 ar   
    12    5   33 1    
    13    6    8 ar   
    14    6   10 ar   
    15    6   34 1    
    16    7   12 ar   
    17    7   18 1    
    18    8   22 1    
    19    9   11 ar   
    20    9   25 1    
    21   10   11 ar   
    22   10   26 1    
    23   11   27 1    
    24   12   28 1    
    25   13   22 1    
    26   13   23 am   BACKBONE|DICT|INTERRES
    27   13   24 2    
    28   14   16 1    
    29   14   18 1    
    30   14   35 1    
    31   14   36 1    
    32   15   17 1    
    33   15   18 1    
    34   15   37 1    
    35   15   38 1    
    36   16   23 1    
    37   16   39 1    
    38   16   40 1    
    39   17   23 1    
    40   17   41 1    
    41   17   42 1    
    42   18   43 1    
    43   19   25 1    
    44   19   44 1    
    45   19   45 1    
    46   19   46 1    
    47   20   26 1    
    48   20   47 1    
    49   20   48 1    
    50   20   49 1    
    51   21   27 1    
    52   21   50 1    
    53   21   51 1    
    54   21   52 1    
    55   22   53 1    
    56   22   54 1    
@<TRIPOS>SUBSTRUCTURE
     1 UNK         1 GROUP             0       ****    0 ROOT    
@<TRIPOS>MOLECULE
ZINC12184813_134
53   56    1
SMALL
USER_CHARGES


@<TRIPOS>ATOM
      1 C1         -3.3629   -7.0978   36.2550 C.ar      1 UNK        -0.1150 
      2 C2         -2.8489   -6.7652   34.9858 C.ar      1 UNK        -0.1150 
      3 C3         -8.3832   -5.9448   38.7691 C.ar      1 UNK        -0.1150 
      4 C4         -6.5611   -4.4006   39.2614 C.ar      1 UNK        -0.1150 
      5 C5         -3.3462   -9.0228   34.1746 C.ar      1 UNK        -0.1150 
      6 C6         -7.2354   -5.6107   39.5189 C.ar      1 UNK        -0.1150 
      7 C7         -3.8666   -9.3743   35.4393 C.ar      1 UNK         0.2502 
      8 C8         -3.8598   -8.3980   36.4611 C.ar      1 UNK        -0.0957 
      9 C9         -8.8309   -5.1017   37.7248 C.ar      1 UNK         0.0850 
     10 C10        -6.9918   -3.5415   38.2223 C.ar      1 UNK         0.0850 
     11 C11        -8.1206   -3.9107   37.4539 C.ar      1 UNK         0.0850 
     12 C12        -2.8401   -7.7251   33.9513 C.ar      1 UNK         0.2200 
     13 C13        -6.7625   -6.4976   40.6338 C.2       1 UNK         0.6150 
     14 C14        -4.6261   -9.0507   41.3606 C.3       1 UNK        -0.1200 
     15 C15        -4.2124   -9.5512   39.9641 C.3       1 UNK        -0.1200 
     16 C16        -6.1374   -8.7560   41.4155 C.3       1 UNK        -0.0500 
     17 C17        -6.2443   -8.3553   39.0174 C.3       1 UNK        -0.0500 
     18 C18        -4.7315   -8.6097   38.8526 C.3       1 UNK         0.0625 
     19 C19       -10.6878   -6.5433   37.2123 C.3       1 UNK         0.1100 
     20 C20        -5.3067   -1.9040   38.7367 C.3       1 UNK         0.1100 
     21 C21        -7.8509   -3.2661   35.2332 C.3       1 UNK         0.1100 
     22 N22        -4.4234  -10.5501   35.9122 N.2       1 UNK        -0.4222 
     23 N23        -4.7627  -10.3647   37.1515 N.2       1 UNK         0.0816 
     24 N24        -4.4239   -9.0934   37.5145 N.pl3     1 UNK         0.0636 
     25 N25        -6.4878   -7.7978   40.3577 N.am      1 UNK        -0.1400 
     26 O26        -6.6349   -6.0130   41.7567 O.2       1 UNK        -0.5000 
     27 O27        -9.9291   -5.3760   36.9361 O.3       1 UNK        -0.2850 
     28 O28        -6.3685   -2.3514   37.9072 O.3       1 UNK        -0.2850 
     29 O29        -8.5606   -3.0912   36.4471 O.3       1 UNK        -0.2850 
     30 F30        -2.3445   -7.3954   32.7356 F         1 UNK        -0.2200 
     31 H31        -3.3727   -6.3666   37.0496 H         1 UNK         0.1150 
     32 H32        -2.4597   -5.7750   34.7984 H         1 UNK         0.1150 
     33 H33        -8.9037   -6.8589   39.0107 H         1 UNK         0.1150 
     34 H34        -5.7099   -4.1545   39.8784 H         1 UNK         0.1150 
     35 H35        -3.3392   -9.7490   33.3762 H         1 UNK         0.1150 
     36 H36        -4.3603   -9.7897   42.1176 H         1 UNK         0.0600 
     37 H37        -4.0702   -8.1448   41.6079 H         1 UNK         0.0600 
     38 H38        -3.1271   -9.6435   39.9043 H         1 UNK         0.0600 
     39 H39        -4.6134  -10.5561   39.8238 H         1 UNK         0.0600 
     40 H40        -6.7076   -9.6751   41.2725 H         1 UNK         0.0600 
     41 H41        -6.4114   -8.3933   42.4082 H         1 UNK         0.0600 
     42 H42        -6.5781   -7.7121   38.2048 H         1 UNK         0.0600 
     43 H43        -6.8046   -9.2851   38.9072 H         1 UNK         0.0600 
     44 H44        -4.2170   -7.6544   38.9662 H         1 UNK         0.0600 
     45 H45       -11.5268   -6.5974   36.5188 H         1 UNK         0.0300 
     46 H46       -11.0977   -6.5237   38.2232 H         1 UNK         0.0300 
     47 H47       -10.0916   -7.4471   37.0794 H         1 UNK         0.0300 
     48 H48        -4.9575   -0.9348   38.3805 H         1 UNK         0.0300 
     49 H49        -4.4594   -2.5902   38.7060 H         1 UNK         0.0300 
     50 H50        -5.6336   -1.7768   39.7697 H         1 UNK         0.0300 
     51 H51        -8.2684   -2.6098   34.4698 H         1 UNK         0.0300 
     52 H52        -7.9346   -4.2933   34.8750 H         1 UNK         0.0300 
     53 H53        -6.7945   -3.0202   35.3461 H         1 UNK         0.0300 
@<TRIPOS>BOND
     1    1    2 ar   
     2    1    8 ar   
     3    1   31 1    
     4    2   12 ar   
     5    2   32 1    
     6    3    6 ar   
     7    3    9 ar   
     8    3   33 1    
     9    4    6 ar   
    10    4   10 ar   
    11    4   34 1    
    12    5    7 ar   
    13    5   12 ar   
    14    5   35 1    
    15    6   13 1    
    16    7    8 ar   
    17    7   22 ar   
    18    8   24 ar   
    19    9   11 ar   
    20    9   27 1    
    21   10   11 ar   
    22   10   28 1    
    23   11   29 1    
    24   12   30 1    
    25   13   25 am   BACKBONE|DICT|INTERRES
    26   13   26 2    
    27   14   15 1    
    28   14   16 1    
    29   14   36 1    
    30   14   37 1    
    31   15   18 1    
    32   15   38 1    
    33   15   39 1    
    34   16   25 1    
    35   16   40 1    
    36   16   41 1    
    37   17   18 1    
    38   17   25 1    
    39   17   42 1    
    40   17   43 1    
    41   18   24 1    
    42   18   44 1    
    43   19   27 1    
    44   19   45 1    
    45   19   46 1    
    46   19   47 1    
    47   20   28 1    
    48   20   48 1    
    49   20   49 1    
    50   20   50 1    
    51   21   29 1    
    52   21   51 1    
    53   21   52 1    
    54   21   53 1    
    55   22   23 ar   
    56   23   24 ar   
@<TRIPOS>SUBSTRUCTURE
     1 UNK         1 GROUP             0       ****    0 ROOT    
@<TRIPOS>MOLECULE
ZINC12188037_93
52   55    1
SMALL
USER_CHARGES


@<TRIPOS>ATOM
      1 C1         -2.4234   -9.3328   33.1105 C.ar      1 UNK        -0.0460 
      2 C2         -3.1317  -10.5120   32.8026 C.ar      1 UNK        -0.1533 
      3 C3         -2.5777   -8.7248   34.3731 C.ar      1 UNK        -0.4445 
      4 C4         -3.9970  -11.0868   33.7557 C.ar      1 UNK        -0.1818 
      5 C5         -6.1523   -4.2692   39.1749 C.ar      1 UNK        -0.1150 
      6 C6         -6.5210   -3.4304   38.1099 C.ar      1 UNK        -0.1150 
      7 C7         -3.6127   -8.7083   36.5884 C.ar      1 UNK        -0.7531 
      8 C8         -8.0806   -5.6729   38.7086 C.ar      1 UNK        -0.1150 
      9 C9         -5.0030  -11.0061   36.0011 C.ar      1 UNK         0.3967 
     10 C10        -3.4413   -9.2967   35.3273 C.ar      1 UNK         0.6486 
     11 C11        -4.1498  -10.4753   35.0175 C.ar      1 UNK        -0.2505 
     12 C12        -6.9158   -5.4144   39.4625 C.ar      1 UNK        -0.1150 
     13 C13        -7.6534   -3.7043   37.3171 C.ar      1 UNK         0.0850 
     14 C14        -8.4657   -4.8374   37.6272 C.ar      1 UNK         0.0850 
     15 C15        -4.4909   -9.3171   37.5002 C.ar      1 UNK         0.4151 
     16 C16        -6.5225   -6.3050   40.6074 C.2       1 UNK         0.6150 
     17 C17        -4.6294   -9.0452   41.4009 C.3       1 UNK        -0.1200 
     18 C18        -4.2963   -9.6437   40.0209 C.3       1 UNK        -0.1200 
     19 C19        -6.0985   -8.5855   41.4614 C.3       1 UNK        -0.0500 
     20 C20        -6.1977   -8.2586   39.0506 C.3       1 UNK        -0.0500 
     21 C21        -4.7328   -8.7075   38.8744 C.3       1 UNK         0.0550 
     22 C22        -8.7427   -3.1127   35.2297 C.3       1 UNK         0.1100 
     23 C23       -10.4033   -6.2196   37.1976 C.3       1 UNK         0.1100 
     24 N24        -5.1754  -10.4421   37.2128 N.ar      1 UNK        -0.6841 
     25 N25        -6.3605   -7.6323   40.3737 N.am      1 UNK        -0.1400 
     26 O26        -6.3597   -5.7991   41.7170 O.2       1 UNK        -0.5000 
     27 O27        -7.8668   -2.7943   36.2996 O.3       1 UNK        -0.2850 
     28 O28        -9.6059   -5.0853   36.8887 O.3       1 UNK        -0.2850 
     29 H29        -1.7614   -8.8949   32.3768 H         1 UNK         0.1382 
     30 H30        -3.0103  -10.9753   31.8326 H         1 UNK         0.1414 
     31 H31        -2.0350   -7.8217   34.6048 H         1 UNK         0.2009 
     32 H32        -4.5394  -11.9901   33.5177 H         1 UNK         0.1598 
     33 H33        -5.2800   -4.0358   39.7695 H         1 UNK         0.1150 
     34 H34        -5.9219   -2.5593   37.8885 H         1 UNK         0.1150 
     35 H35        -3.0847   -7.8043   36.8472 H         1 UNK         0.2410 
     36 H36        -8.6670   -6.5348   38.9859 H         1 UNK         0.1150 
     37 H37        -5.5687  -11.9066   35.8129 H         1 UNK         0.0566 
     38 H38        -4.4327   -9.7787   42.1836 H         1 UNK         0.0600 
     39 H39        -3.9741   -8.1965   41.6029 H         1 UNK         0.0600 
     40 H40        -3.2301   -9.8590   39.9447 H         1 UNK         0.0600 
     41 H41        -4.8091  -10.6012   39.9184 H         1 UNK         0.0600 
     42 H42        -6.7657   -9.4421   41.3555 H         1 UNK         0.0600 
     43 H43        -6.3171   -8.1627   42.4441 H         1 UNK         0.0600 
     44 H44        -6.4511   -7.6068   38.2171 H         1 UNK         0.0600 
     45 H45        -6.8684   -9.1152   38.9716 H         1 UNK         0.0600 
     46 H46        -4.1129   -7.8119   38.9393 H         1 UNK         0.0600 
     47 H47        -8.5996   -2.3900   34.4267 H         1 UNK         0.0300 
     48 H48        -9.7868   -3.0493   35.5376 H         1 UNK         0.0300 
     49 H49        -8.5363   -4.1014   34.8174 H         1 UNK         0.0300 
     50 H50       -11.2462   -6.2618   36.5079 H         1 UNK         0.0300 
     51 H51       -10.8100   -6.1592   38.2081 H         1 UNK         0.0300 
     52 H52        -9.8407   -7.1474   37.0847 H         1 UNK         0.0300 
@<TRIPOS>BOND
     1    1    2 ar   
     2    1    3 ar   
     3    1   29 1    
     4    2    4 ar   
     5    2   30 1    
     6    3   10 ar   
     7    3   31 1    
     8    4   11 ar   
     9    4   32 1    
    10    5    6 ar   
    11    5   12 ar   
    12    5   33 1    
    13    6   13 ar   
    14    6   34 1    
    15    7   10 ar   
    16    7   15 ar   
    17    7   35 1    
    18    8   12 ar   
    19    8   14 ar   
    20    8   36 1    
    21    9   11 ar   
    22    9   24 ar   
    23    9   37 1    
    24   10   11 ar   
    25   12   16 1    
    26   13   14 ar   
    27   13   27 1    
    28   14   28 1    
    29   15   21 1    
    30   15   24 ar   
    31   16   25 am   BACKBONE|DICT|INTERRES
    32   16   26 2    
    33   17   18 1    
    34   17   19 1    
    35   17   38 1    
    36   17   39 1    
    37   18   21 1    
    38   18   40 1    
    39   18   41 1    
    40   19   25 1    
    41   19   42 1    
    42   19   43 1    
    43   20   21 1    
    44   20   25 1    
    45   20   44 1    
    46   20   45 1    
    47   21   46 1    
    48   22   27 1    
    49   22   47 1    
    50   22   48 1    
    51   22   49 1    
    52   23   28 1    
    53   23   50 1    
    54   23   51 1    
    55   23   52 1    
@<TRIPOS>SUBSTRUCTURE
     1 UNK         1 GROUP             0       ****    0 ROOT    
@<TRIPOS>MOLECULE
ZINC12188049_131
56   59    1
SMALL
USER_CHARGES


@<TRIPOS>ATOM
      1 C1         -2.1384   -9.1618   33.3216 C.ar      1 UNK        -0.0460 
      2 C2         -2.8159  -10.3421   32.9544 C.ar      1 UNK        -0.1533 
      3 C3         -2.3784   -8.5708   34.5790 C.ar      1 UNK        -0.4445 
      4 C4         -3.7359  -10.9349   33.8428 C.ar      1 UNK        -0.1818 
      5 C5         -3.5515   -8.5917   36.7253 C.ar      1 UNK        -0.7531 
      6 C6         -6.5354   -4.2542   39.3958 C.ar      1 UNK        -0.1150 
      7 C7         -8.3180   -5.7990   38.7827 C.ar      1 UNK        -0.1150 
      8 C8         -4.8804  -10.8937   36.0212 C.ar      1 UNK         0.3967 
      9 C9         -3.2968   -9.1610   35.4690 C.ar      1 UNK         0.6486 
     10 C10        -3.9736  -10.3410   35.0998 C.ar      1 UNK        -0.2505 
     11 C11        -7.2046   -5.4789   39.5887 C.ar      1 UNK        -0.1150 
     12 C12        -6.9348   -3.3672   38.3683 C.ar      1 UNK         0.0850 
     13 C13        -8.7344   -4.9288   37.7468 C.ar      1 UNK         0.0850 
     14 C14        -8.0247   -3.7209   37.5414 C.ar      1 UNK         0.0850 
     15 C15        -4.4758   -9.2237   37.5738 C.ar      1 UNK         0.4151 
     16 C16        -6.7721   -6.3887   40.7027 C.2       1 UNK         0.6150 
     17 C17        -4.7662   -9.0638   41.4680 C.3       1 UNK        -0.1200 
     18 C18        -4.3606   -9.6070   40.0858 C.3       1 UNK        -0.1200 
     19 C19        -6.2553   -8.6735   41.4850 C.3       1 UNK        -0.0500 
     20 C20        -6.2757   -8.2554   39.0834 C.3       1 UNK        -0.0500 
     21 C21        -4.7902   -8.6540   38.9508 C.3       1 UNK         0.0550 
     22 C22        -5.2415   -1.7627   38.9527 C.3       1 UNK         0.1100 
     23 C23       -10.5433   -6.3877   37.1176 C.3       1 UNK         0.1100 
     24 C24        -8.0561   -3.2813   35.2458 C.3       1 UNK         0.1100 
     25 N25        -5.1296  -10.3505   37.2289 N.ar      1 UNK        -0.6841 
     26 N26        -6.5194   -7.6924   40.4228 N.am      1 UNK        -0.1400 
     27 O27        -6.6626   -5.9175   41.8338 O.2       1 UNK        -0.5000 
     28 O28        -6.3105   -2.1641   38.1097 O.3       1 UNK        -0.2850 
     29 O29        -9.8105   -5.1876   36.9227 O.3       1 UNK        -0.2850 
     30 O30        -8.4035   -2.8498   36.5514 O.3       1 UNK        -0.2850 
     31 H31        -1.4342   -8.7103   32.6372 H         1 UNK         0.1382 
     32 H32        -2.6285  -10.7929   31.9890 H         1 UNK         0.1414 
     33 H33        -1.8575   -7.6677   34.8563 H         1 UNK         0.2009 
     34 H34        -4.2542  -11.8397   33.5602 H         1 UNK         0.1598 
     35 H35        -3.0452   -7.6899   37.0302 H         1 UNK         0.2410 
     36 H36        -5.7122   -4.0187   40.0536 H         1 UNK         0.1150 
     37 H37        -8.8391   -6.7234   38.9794 H         1 UNK         0.1150 
     38 H38        -5.4237  -11.7972   35.7867 H         1 UNK         0.0566 
     39 H39        -4.5641   -9.8110   42.2363 H         1 UNK         0.0600 
     40 H40        -4.1578   -8.1929   41.7168 H         1 UNK         0.0600 
     41 H41        -3.2847   -9.7791   40.0442 H         1 UNK         0.0600 
     42 H42        -4.8310  -10.5802   39.9370 H         1 UNK         0.0600 
     43 H43        -6.8772   -9.5545   41.3208 H         1 UNK         0.0600 
     44 H44        -6.5312   -8.2999   42.4731 H         1 UNK         0.0600 
     45 H45        -6.5115   -7.5741   38.2684 H         1 UNK         0.0600 
     46 H46        -6.9164   -9.1265   38.9396 H         1 UNK         0.0600 
     47 H47        -4.2033   -7.7409   39.0609 H         1 UNK         0.0600 
     48 H48        -4.8796   -0.7856   38.6329 H         1 UNK         0.0300 
     49 H49        -4.4045   -2.4596   38.8932 H         1 UNK         0.0300 
     50 H50        -5.5645   -1.6707   39.9906 H         1 UNK         0.0300 
     51 H51       -11.3523   -6.4357   36.3889 H         1 UNK         0.0300 
     52 H52       -10.9928   -6.4235   38.1109 H         1 UNK         0.0300 
     53 H53        -9.9149   -7.2672   36.9703 H         1 UNK         0.0300 
     54 H54        -8.2608   -2.4814   34.5346 H         1 UNK         0.0300 
     55 H55        -8.6308   -4.1545   34.9374 H         1 UNK         0.0300 
     56 H56        -6.9940   -3.5221   35.1806 H         1 UNK         0.0300 
@<TRIPOS>BOND
     1    1    2 ar   
     2    1    3 ar   
     3    1   31 1    
     4    2    4 ar   
     5    2   32 1    
     6    3    9 ar   
     7    3   33 1    
     8    4   10 ar   
     9    4   34 1    
    10    5    9 ar   
    11    5   15 ar   
    12    5   35 1    
    13    6   11 ar   
    14    6   12 ar   
    15    6   36 1    
    16    7   11 ar   
    17    7   13 ar   
    18    7   37 1    
    19    8   10 ar   
    20    8   25 ar   
    21    8   38 1    
    22    9   10 ar   
    23   11   16 1    
    24   12   14 ar   
    25   12   28 1    
    26   13   14 ar   
    27   13   29 1    
    28   14   30 1    
    29   15   21 1    
    30   15   25 ar   
    31   16   26 am   BACKBONE|DICT|INTERRES
    32   16   27 2    
    33   17   18 1    
    34   17   19 1    
    35   17   39 1    
    36   17   40 1    
    37   18   21 1    
    38   18   41 1    
    39   18   42 1    
    40   19   26 1    
    41   19   43 1    
    42   19   44 1    
    43   20   21 1    
    44   20   26 1    
    45   20   45 1    
    46   20   46 1    
    47   21   47 1    
    48   22   28 1    
    49   22   48 1    
    50   22   49 1    
    51   22   50 1    
    52   23   29 1    
    53   23   51 1    
    54   23   52 1    
    55   23   53 1    
    56   24   30 1    
    57   24   54 1    
    58   24   55 1    
    59   24   56 1    
@<TRIPOS>SUBSTRUCTURE
     1 UNK         1 GROUP             0       ****    0 ROOT    
@<TRIPOS>MOLECULE
ZINC12188051_22
56   59    1
SMALL
USER_CHARGES


@<TRIPOS>ATOM
      1 C1         -5.7350  -11.4837   33.2856 C.ar      1 UNK        -0.0460 
      2 C2         -4.3486  -11.3776   33.0536 C.ar      1 UNK        -0.1533 
      3 C3         -6.2778  -11.0809   34.5231 C.ar      1 UNK        -0.4445 
      4 C4         -3.5000  -10.8701   34.0582 C.ar      1 UNK        -0.1818 
      5 C5         -5.9498  -10.1621   36.7656 C.ar      1 UNK        -0.7531 
      6 C6         -7.2245   -4.2198   39.5936 C.ar      1 UNK        -0.1150 
      7 C7         -7.9943   -6.3640   38.7299 C.ar      1 UNK        -0.1150 
      8 C8         -3.2419   -9.9577   36.3294 C.ar      1 UNK         0.3967 
      9 C9         -5.4322  -10.5716   35.5279 C.ar      1 UNK         0.6486 
     10 C10        -4.0459  -10.4679   35.2948 C.ar      1 UNK        -0.2505 
     11 C11        -7.2808   -5.6243   39.6976 C.ar      1 UNK        -0.1150 
     12 C12        -7.8322   -3.5479   38.5061 C.ar      1 UNK         0.0850 
     13 C13        -8.5968   -5.7155   37.6259 C.ar      1 UNK         0.0850 
     14 C14        -8.5050   -4.3099   37.5224 C.ar      1 UNK         0.0850 
     15 C15        -5.0612   -9.6563   37.7297 C.ar      1 UNK         0.4151 
     16 C16        -6.6457   -6.2992   40.8815 C.2       1 UNK         0.6150 
     17 C17        -5.5474   -9.5835   41.6063 C.3       1 UNK        -0.1200 
     18 C18        -5.0852  -10.1066   40.2331 C.3       1 UNK        -0.1200 
     19 C19        -5.1973   -8.0934   41.7831 C.3       1 UNK        -0.0500 
     20 C20        -5.1995   -7.7212   39.3768 C.3       1 UNK        -0.0500 
     21 C21        -5.5669   -9.1928   39.0887 C.3       1 UNK         0.0550 
     22 C22        -7.1906   -1.3895   39.3512 C.3       1 UNK         0.1100 
     23 C23        -9.2735   -7.7975   36.6318 C.3       1 UNK         0.1100 
     24 C24        -8.1938   -3.3260   35.4331 C.3       1 UNK         0.1100 
     25 N25        -3.7338   -9.5623   37.5199 N.ar      1 UNK        -0.6841 
     26 N26        -5.7687   -7.3152   40.6726 N.am      1 UNK        -0.1400 
     27 O27        -6.9359   -5.8926   42.0058 O.2       1 UNK        -0.5000 
     28 O28        -7.8090   -2.1775   38.3453 O.3       1 UNK        -0.2850 
     29 O29        -9.2752   -6.3789   36.6243 O.3       1 UNK        -0.2850 
     30 O30        -9.1037   -3.6857   36.4584 O.3       1 UNK        -0.2850 
     31 H31        -6.3815  -11.8747   32.5127 H         1 UNK         0.1382 
     32 H32        -3.9360  -11.6872   32.1025 H         1 UNK         0.1414 
     33 H33        -7.3393  -11.1638   34.6948 H         1 UNK         0.2009 
     34 H34        -2.4375  -10.7906   33.8794 H         1 UNK         0.1598 
     35 H35        -7.0045  -10.2430   36.9700 H         1 UNK         0.2410 
     36 H36        -6.7057   -3.6774   40.3700 H         1 UNK         0.1150 
     37 H37        -8.0675   -7.4322   38.8533 H         1 UNK         0.1150 
     38 H38        -2.1738   -9.8612   36.2021 H         1 UNK         0.0566 
     39 H39        -6.6256   -9.7177   41.7068 H         1 UNK         0.0600 
     40 H40        -5.0896  -10.1721   42.4023 H         1 UNK         0.0600 
     41 H41        -3.9952  -10.1559   40.2187 H         1 UNK         0.0600 
     42 H42        -5.4389  -11.1258   40.0748 H         1 UNK         0.0600 
     43 H43        -5.5508   -7.7562   42.7593 H         1 UNK         0.0600 
     44 H44        -4.1149   -7.9574   41.7974 H         1 UNK         0.0600 
     45 H45        -4.1148   -7.6148   39.4242 H         1 UNK         0.0600 
     46 H46        -5.5013   -7.0878   38.5444 H         1 UNK         0.0600 
     47 H47        -6.6545   -9.2596   39.0621 H         1 UNK         0.0600 
     48 H48        -7.2744   -0.3363   39.0840 H         1 UNK         0.0300 
     49 H49        -6.1290   -1.6218   39.4437 H         1 UNK         0.0300 
     50 H50        -7.6770   -1.5236   40.3184 H         1 UNK         0.0300 
     51 H51        -9.8020   -8.1614   35.7507 H         1 UNK         0.0300 
     52 H52        -9.7852   -8.1934   37.5097 H         1 UNK         0.0300 
     53 H53        -8.2575   -8.1915   36.5928 H         1 UNK         0.0300 
     54 H54        -8.7385   -2.8668   34.6085 H         1 UNK         0.0300 
     55 H55        -7.6761   -4.2044   35.0451 H         1 UNK         0.0300 
     56 H56        -7.4504   -2.6091   35.7827 H         1 UNK         0.0300 
@<TRIPOS>BOND
     1    1    2 ar   
     2    1    3 ar   
     3    1   31 1    
     4    2    4 ar   
     5    2   32 1    
     6    3    9 ar   
     7    3   33 1    
     8    4   10 ar   
     9    4   34 1    
    10    5    9 ar   
    11    5   15 ar   
    12    5   35 1    
    13    6   11 ar   
    14    6   12 ar   
    15    6   36 1    
    16    7   11 ar   
    17    7   13 ar   
    18    7   37 1    
    19    8   10 ar   
    20    8   25 ar   
    21    8   38 1    
    22    9   10 ar   
    23   11   16 1    
    24   12   14 ar   
    25   12   28 1    
    26   13   14 ar   
    27   13   29 1    
    28   14   30 1    
    29   15   21 1    
    30   15   25 ar   
    31   16   26 am   BACKBONE|DICT|INTERRES
    32   16   27 2    
    33   17   18 1    
    34   17   19 1    
    35   17   39 1    
    36   17   40 1    
    37   18   21 1    
    38   18   41 1    
    39   18   42 1    
    40   19   26 1    
    41   19   43 1    
    42   19   44 1    
    43   20   21 1    
    44   20   26 1    
    45   20   45 1    
    46   20   46 1    
    47   21   47 1    
    48   22   28 1    
    49   22   48 1    
    50   22   49 1    
    51   22   50 1    
    52   23   29 1    
    53   23   51 1    
    54   23   52 1    
    55   23   53 1    
    56   24   30 1    
    57   24   54 1    
    58   24   55 1    
    59   24   56 1    
@<TRIPOS>SUBSTRUCTURE
     1 UNK         1 GROUP             0       ****    0 ROOT    
@<TRIPOS>MOLECULE
ZINC12224092_255
58   61    1
SMALL
USER_CHARGES


@<TRIPOS>ATOM
      1 C1         -2.9394  -10.1306   33.4172 C.ar      1 UNK        -0.4707 
      2 C2         -3.2631   -8.9321   34.0760 C.ar      1 UNK         0.1193 
      3 C3         -9.0194   -5.4471   39.2531 C.ar      1 UNK        -0.1150 
      4 C4         -6.6918   -4.7484   39.2616 C.ar      1 UNK        -0.1150 
      5 C5         -4.4988  -10.3151   37.2681 C.ar      1 UNK        -0.8463 
      6 C6         -3.1556  -11.3450   34.0907 C.ar      1 UNK         0.4244 
      7 C7         -4.1345   -7.8648   36.1058 C.ar      1 UNK         0.4776 
      8 C8         -3.7864   -9.0129   35.3783 C.ar      1 UNK        -0.5673 
      9 C9         -7.8289   -5.2009   39.9632 C.ar      1 UNK        -0.1150 
     10 C10        -3.9710  -10.2736   35.9744 C.ar      1 UNK         1.0624 
     11 C11        -9.0905   -5.2751   37.8580 C.ar      1 UNK         0.0850 
     12 C12        -6.7304   -4.5681   37.8579 C.ar      1 UNK         0.0850 
     13 C13        -7.9409   -4.8051   37.1601 C.ar      1 UNK         0.0850 
     14 C14        -4.8190   -9.1181   37.9193 C.ar      1 UNK         0.4525 
     15 C15        -6.5551   -6.2550   41.9128 C.2       1 UNK         0.5000 
     16 C16        -6.8448   -8.5229   39.3254 C.3       1 UNK        -0.1200 
     17 C17        -4.4853   -8.4303   40.3425 C.3       1 UNK        -0.1200 
     18 C18        -7.3866   -8.3352   40.7562 C.3       1 UNK        -0.0500 
     19 C19        -5.1630   -8.2884   41.7183 C.3       1 UNK        -0.0500 
     20 C20        -5.4175   -9.1179   39.3189 C.3       1 UNK         0.0550 
     21 C21       -10.3842   -5.9013   35.9167 C.3       1 UNK         0.1100 
     22 C22        -4.3614   -4.1840   37.7470 C.3       1 UNK         0.1100 
     23 C23        -8.0430   -3.1988   35.4680 C.3       1 UNK         0.1100 
     24 C24        -7.7829   -5.4384   41.4715 C.3       1 UNK        -0.0050 
     25 N25        -3.6586  -11.4186   35.3372 N.ar      1 UNK        -0.7665 
     26 N26        -4.6300   -7.9141   37.3523 N.ar      1 UNK        -0.7115 
     27 N27        -6.4190   -7.5516   41.5350 N.am      1 UNK        -0.1400 
     28 O28        -5.7003   -5.6775   42.5847 O.2       1 UNK        -0.5000 
     29 O29       -10.3158   -5.5722   37.2958 O.3       1 UNK        -0.2850 
     30 O30        -5.6345   -4.1711   37.1181 O.3       1 UNK        -0.2850 
     31 O31        -7.9752   -4.5754   35.8073 O.3       1 UNK        -0.2850 
     32 H32        -2.5341  -10.1246   32.4145 H         1 UNK         0.1920 
     33 H33        -3.1135   -7.9768   33.5936 H         1 UNK         0.1300 
     34 H34        -9.8995   -5.7929   39.7752 H         1 UNK         0.1150 
     35 H35        -5.7864   -4.5576   39.8176 H         1 UNK         0.1150 
     36 H36        -4.6524  -11.2737   37.7347 H         1 UNK         0.2696 
     37 H37        -2.9190  -12.2858   33.6152 H         1 UNK         0.0703 
     38 H38        -4.0099   -6.8781   35.6840 H         1 UNK         0.0492 
     39 H39        -7.5142   -9.1557   38.7423 H         1 UNK         0.0600 
     40 H40        -6.8343   -7.5580   38.8193 H         1 UNK         0.0600 
     41 H41        -4.2140   -7.4366   39.9817 H         1 UNK         0.0600 
     42 H42        -3.5527   -8.9881   40.4299 H         1 UNK         0.0600 
     43 H43        -8.3779   -7.8861   40.7274 H         1 UNK         0.0600 
     44 H44        -7.5245   -9.3075   41.2310 H         1 UNK         0.0600 
     45 H45        -5.3677   -9.2702   42.1470 H         1 UNK         0.0600 
     46 H46        -4.4846   -7.7958   42.4169 H         1 UNK         0.0600 
     47 H47        -5.5123  -10.1576   39.6340 H         1 UNK         0.0600 
     48 H48       -11.3270   -6.4108   35.7199 H         1 UNK         0.0300 
     49 H49        -9.5810   -6.5752   35.6158 H         1 UNK         0.0300 
     50 H50       -10.3657   -5.0066   35.2947 H         1 UNK         0.0300 
     51 H51        -3.5917   -3.9835   37.0022 H         1 UNK         0.0300 
     52 H52        -4.1420   -5.1561   38.1919 H         1 UNK         0.0300 
     53 H53        -4.2879   -3.4110   38.5126 H         1 UNK         0.0300 
     54 H54        -8.1630   -3.0972   34.3897 H         1 UNK         0.0300 
     55 H55        -7.1405   -2.6585   35.7534 H         1 UNK         0.0300 
     56 H56        -8.8994   -2.7207   35.9457 H         1 UNK         0.0300 
     57 H57        -7.7540   -4.4669   41.9662 H         1 UNK         0.0600 
     58 H58        -8.6908   -5.9275   41.8236 H         1 UNK         0.0600 
@<TRIPOS>BOND
     1    1    2 ar   
     2    1    6 ar   
     3    1   32 1    
     4    2    8 ar   
     5    2   33 1    
     6    3    9 ar   
     7    3   11 ar   
     8    3   34 1    
     9    4    9 ar   
    10    4   12 ar   
    11    4   35 1    
    12    5   10 ar   
    13    5   14 ar   
    14    5   36 1    
    15    6   25 ar   
    16    6   37 1    
    17    7    8 ar   
    18    7   26 ar   
    19    7   38 1    
    20    8   10 ar   
    21    9   24 1    
    22   10   25 ar   
    23   11   13 ar   
    24   11   29 1    
    25   12   13 ar   
    26   12   30 1    
    27   13   31 1    
    28   14   20 1    
    29   14   26 ar   
    30   15   24 1    
    31   15   27 am   BACKBONE|DICT|INTERRES
    32   15   28 2    
    33   16   18 1    
    34   16   20 1    
    35   16   39 1    
    36   16   40 1    
    37   17   19 1    
    38   17   20 1    
    39   17   41 1    
    40   17   42 1    
    41   18   27 1    
    42   18   43 1    
    43   18   44 1    
    44   19   27 1    
    45   19   45 1    
    46   19   46 1    
    47   20   47 1    
    48   21   29 1    
    49   21   48 1    
    50   21   49 1    
    51   21   50 1    
    52   22   30 1    
    53   22   51 1    
    54   22   52 1    
    55   22   53 1    
    56   23   31 1    
    57   23   54 1    
    58   23   55 1    
    59   23   56 1    
    60   24   57 1    
    61   24   58 1    
@<TRIPOS>SUBSTRUCTURE
     1 UNK         1 GROUP             0       ****    0 ROOT    
@<TRIPOS>MOLECULE
ZINC12291934_29
55   58    1
SMALL
USER_CHARGES


@<TRIPOS>ATOM
      1 C1         -3.9166  -12.5092   32.8952 C.ar      1 UNK         0.2270 
      2 C2         -4.7601  -13.5732   33.2508 C.ar      1 UNK        -0.4470 
      3 C3         -3.7252  -11.4674   33.8161 C.ar      1 UNK        -0.4470 
      4 C4         -8.3521   -5.9781   38.7353 C.ar      1 UNK        -0.1150 
      5 C5         -6.6722   -4.2898   39.2262 C.ar      1 UNK        -0.1150 
      6 C6         -5.3773  -13.5497   34.5117 C.ar      1 UNK         0.4730 
      7 C7         -7.2560   -5.5395   39.5036 C.ar      1 UNK        -0.1150 
      8 C8         -8.8243   -5.2045   37.6497 C.ar      1 UNK         0.0850 
      9 C9         -7.1305   -3.4883   38.1516 C.ar      1 UNK         0.0850 
     10 C10        -8.2003   -3.9720   37.3426 C.ar      1 UNK         0.0850 
     11 C11        -4.3864  -11.5240   35.0629 C.ar      1 UNK         0.4850 
     12 C12        -4.2163  -10.4521   36.0563 C.2       1 UNK         0.6636 
     13 C13        -4.2641   -9.1522   37.6890 C.2       1 UNK         0.5497 
     14 C14        -6.7527   -6.3522   40.6618 C.2       1 UNK         0.6150 
     15 C15        -4.5562   -8.8431   41.5492 C.3       1 UNK        -0.1200 
     16 C16        -4.1112   -9.4203   40.1928 C.3       1 UNK        -0.1200 
     17 C17        -6.0684   -8.5531   41.5531 C.3       1 UNK        -0.0500 
     18 C18        -6.1179   -8.2505   39.1327 C.3       1 UNK        -0.0500 
     19 C19        -4.6092   -8.5542   39.0180 C.3       1 UNK         0.0550 
     20 C20       -10.5336   -6.8194   37.1236 C.3       1 UNK         0.1100 
     21 C21        -5.5716   -1.7356   38.7290 C.3       1 UNK         0.1100 
     22 C22        -7.8507   -2.5204   35.4519 C.3       1 UNK         0.1100 
     23 N23        -5.1988  -12.5543   35.3963 N.ar      1 UNK        -0.6780 
     24 N24        -4.7862  -10.3300   37.2588 N.2       1 UNK        -0.7040 
     25 N25        -3.4239   -8.5493   36.8598 N.2       1 UNK        -0.4268 
     26 N26        -6.4020   -7.6454   40.4458 N.am      1 UNK        -0.1400 
     27 O27        -6.6777   -5.8168   41.7665 O.2       1 UNK        -0.5000 
     28 O28        -3.3880   -9.4158   35.7576 O.3       1 UNK        -0.1975 
     29 O29        -9.8747   -5.5939   36.8428 O.3       1 UNK        -0.2850 
     30 O30        -6.5897   -2.2466   37.8808 O.3       1 UNK        -0.2850 
     31 O31        -8.7248   -3.2935   36.2602 O.3       1 UNK        -0.2850 
     32 H32        -3.4255  -12.4923   31.9331 H         1 UNK         0.0650 
     33 H33        -4.9341  -14.3946   32.5716 H         1 UNK         0.1550 
     34 H34        -3.0819  -10.6343   33.5709 H         1 UNK         0.1550 
     35 H35        -8.8116   -6.9198   38.9934 H         1 UNK         0.1150 
     36 H36        -5.8664   -3.9665   39.8678 H         1 UNK         0.1150 
     37 H37        -6.0326  -14.3523   34.8169 H         1 UNK         0.0120 
     38 H38        -4.3048   -9.5375   42.3519 H         1 UNK         0.0600 
     39 H39        -4.0086   -7.9221   41.7569 H         1 UNK         0.0600 
     40 H40        -3.0253   -9.5158   40.1567 H         1 UNK         0.0600 
     41 H41        -4.5115  -10.4300   40.0875 H         1 UNK         0.0600 
     42 H42        -6.6302   -9.4810   41.4363 H         1 UNK         0.0600 
     43 H43        -6.3662   -8.1502   42.5233 H         1 UNK         0.0600 
     44 H44        -6.3987   -7.6236   38.2883 H         1 UNK         0.0600 
     45 H45        -6.6970   -9.1691   39.0281 H         1 UNK         0.0600 
     46 H46        -4.0860   -7.5981   39.0828 H         1 UNK         0.0600 
     47 H47       -11.3372   -6.9668   36.4022 H         1 UNK         0.0300 
     48 H48       -10.9815   -6.8129   38.1183 H         1 UNK         0.0300 
     49 H49        -9.8532   -7.6676   37.0361 H         1 UNK         0.0300 
     50 H50        -5.2860   -0.7410   38.3865 H         1 UNK         0.0300 
     51 H51        -4.6783   -2.3610   38.7019 H         1 UNK         0.0300 
     52 H52        -5.9193   -1.6402   39.7585 H         1 UNK         0.0300 
     53 H53        -8.2680   -2.4459   34.4481 H         1 UNK         0.0300 
     54 H54        -6.8619   -2.9730   35.3626 H         1 UNK         0.0300 
     55 H55        -7.7523   -1.5053   35.8370 H         1 UNK         0.0300 
@<TRIPOS>BOND
     1    1    2 ar   
     2    1    3 ar   
     3    1   32 1    
     4    2    6 ar   
     5    2   33 1    
     6    3   11 ar   
     7    3   34 1    
     8    4    7 ar   
     9    4    8 ar   
    10    4   35 1    
    11    5    7 ar   
    12    5    9 ar   
    13    5   36 1    
    14    6   23 ar   
    15    6   37 1    
    16    7   14 1    
    17    8   10 ar   
    18    8   29 1    
    19    9   10 ar   
    20    9   30 1    
    21   10   31 1    
    22   11   12 1    
    23   11   23 ar   
    24   12   24 2    
    25   12   28 1    
    26   13   19 1    
    27   13   24 1    
    28   13   25 2    
    29   14   26 am   BACKBONE|DICT|INTERRES
    30   14   27 2    
    31   15   16 1    
    32   15   17 1    
    33   15   38 1    
    34   15   39 1    
    35   16   19 1    
    36   16   40 1    
    37   16   41 1    
    38   17   26 1    
    39   17   42 1    
    40   17   43 1    
    41   18   19 1    
    42   18   26 1    
    43   18   44 1    
    44   18   45 1    
    45   19   46 1    
    46   20   29 1    
    47   20   47 1    
    48   20   48 1    
    49   20   49 1    
    50   21   30 1    
    51   21   50 1    
    52   21   51 1    
    53   21   52 1    
    54   22   31 1    
    55   22   53 1    
    56   22   54 1    
    57   22   55 1    
    58   25   28 1    
@<TRIPOS>SUBSTRUCTURE
     1 UNK         1 GROUP             0       ****    0 ROOT    
@<TRIPOS>MOLECULE
ZINC12291937_59
55   58    1
SMALL
USER_CHARGES


@<TRIPOS>ATOM
      1 C1         -3.9237  -12.3053   32.7991 C.ar      1 UNK         0.2270 
      2 C2         -2.5752  -12.4311   33.1670 C.ar      1 UNK        -0.4470 
      3 C3         -4.8166  -11.7205   33.7104 C.ar      1 UNK        -0.4470 
      4 C4         -7.8612   -5.8082   38.7355 C.ar      1 UNK        -0.1150 
      5 C5         -6.4279   -3.9829   39.4739 C.ar      1 UNK        -0.1150 
      6 C6         -2.1767  -11.9672   34.4308 C.ar      1 UNK         0.4730 
      7 C7         -6.8808   -5.3091   39.6197 C.ar      1 UNK        -0.1150 
      8 C8         -8.3404   -5.0183   37.6637 C.ar      1 UNK         0.0850 
      9 C9         -6.9053   -3.1672   38.4208 C.ar      1 UNK         0.0850 
     10 C10        -7.8469   -3.6999   37.5120 C.ar      1 UNK         0.0850 
     11 C11        -4.3301  -11.2822   34.9617 C.ar      1 UNK         0.4850 
     12 C12        -5.2307  -10.6641   35.9471 C.2       1 UNK         0.6636 
     13 C13        -6.1640   -9.7900   37.5968 C.2       1 UNK         0.5497 
     14 C14        -6.3704   -6.1390   40.7643 C.2       1 UNK         0.6150 
     15 C15        -6.3118   -9.5863   41.4742 C.3       1 UNK        -0.1200 
     16 C16        -6.1604  -10.2304   40.0826 C.3       1 UNK        -0.1200 
     17 C17        -5.4764   -8.2962   41.5875 C.3       1 UNK        -0.0500 
     18 C18        -5.5493   -7.9301   39.1829 C.3       1 UNK        -0.0500 
     19 C19        -6.3899   -9.2034   38.9552 C.3       1 UNK         0.0550 
     20 C20        -9.7067   -6.8142   36.8227 C.3       1 UNK         0.1100 
     21 C21        -5.6095   -1.2800   39.1563 C.3       1 UNK         0.1100 
     22 C22        -7.7928   -3.2490   35.2178 C.3       1 UNK         0.1100 
     23 N23        -3.0274  -11.4073   35.3071 N.ar      1 UNK        -0.6780 
     24 N24        -4.9541  -10.2500   37.1872 N.2       1 UNK        -0.7040 
     25 N25        -7.1522   -9.8829   36.7181 N.2       1 UNK        -0.4268 
     26 N26        -5.8573   -7.3708   40.5095 N.am      1 UNK        -0.1400 
     27 O27        -6.4267   -5.6644   41.8976 O.2       1 UNK        -0.5000 
     28 O28        -6.5339  -10.4739   35.6065 O.3       1 UNK        -0.1975 
     29 O29        -9.2821   -5.4606   36.7570 O.3       1 UNK        -0.2850 
     30 O30        -6.4926   -1.8672   38.2126 O.3       1 UNK        -0.2850 
     31 O31        -8.2995   -2.8978   36.4949 O.3       1 UNK        -0.2850 
     32 H32        -4.2671  -12.6513   31.8349 H         1 UNK         0.0650 
     33 H33        -1.8554  -12.8747   32.4949 H         1 UNK         0.1550 
     34 H34        -5.8609  -11.6104   33.4556 H         1 UNK         0.1550 
     35 H35        -8.2403   -6.8031   38.9008 H         1 UNK         0.1150 
     36 H36        -5.7078   -3.6130   40.1885 H         1 UNK         0.1150 
     37 H37        -1.1467  -12.0474   34.7452 H         1 UNK         0.0120 
     38 H38        -7.3620   -9.3554   41.6598 H         1 UNK         0.0600 
     39 H39        -6.0131  -10.2951   42.2476 H         1 UNK         0.0600 
     40 H40        -5.1549  -10.6442   39.9903 H         1 UNK         0.0600 
     41 H41        -6.8482  -11.0699   39.9745 H         1 UNK         0.0600 
     42 H42        -5.6146   -7.8647   42.5807 H         1 UNK         0.0600 
     43 H43        -4.4121   -8.5235   41.5099 H         1 UNK         0.0600 
     44 H44        -4.4881   -8.1813   39.1435 H         1 UNK         0.0600 
     45 H45        -5.6970   -7.2256   38.3656 H         1 UNK         0.0600 
     46 H46        -7.4410   -8.9168   39.0036 H         1 UNK         0.0600 
     47 H47       -10.3930   -7.0150   36.0003 H         1 UNK         0.0300 
     48 H48       -10.2384   -7.0203   37.7524 H         1 UNK         0.0300 
     49 H49        -8.8665   -7.5027   36.7239 H         1 UNK         0.0300 
     50 H50        -5.4202   -0.2444   38.8743 H         1 UNK         0.0300 
     51 H51        -4.6489   -1.7962   39.1780 H         1 UNK         0.0300 
     52 H52        -6.0415   -1.2748   40.1580 H         1 UNK         0.0300 
     53 H53        -8.0827   -2.4887   34.4929 H         1 UNK         0.0300 
     54 H54        -8.1857   -4.2041   34.8696 H         1 UNK         0.0300 
     55 H55        -6.7032   -3.3019   35.2278 H         1 UNK         0.0300 
@<TRIPOS>BOND
     1    1    2 ar   
     2    1    3 ar   
     3    1   32 1    
     4    2    6 ar   
     5    2   33 1    
     6    3   11 ar   
     7    3   34 1    
     8    4    7 ar   
     9    4    8 ar   
    10    4   35 1    
    11    5    7 ar   
    12    5    9 ar   
    13    5   36 1    
    14    6   23 ar   
    15    6   37 1    
    16    7   14 1    
    17    8   10 ar   
    18    8   29 1    
    19    9   10 ar   
    20    9   30 1    
    21   10   31 1    
    22   11   12 1    
    23   11   23 ar   
    24   12   24 2    
    25   12   28 1    
    26   13   19 1    
    27   13   24 1    
    28   13   25 2    
    29   14   26 am   BACKBONE|DICT|INTERRES
    30   14   27 2    
    31   15   16 1    
    32   15   17 1    
    33   15   38 1    
    34   15   39 1    
    35   16   19 1    
    36   16   40 1    
    37   16   41 1    
    38   17   26 1    
    39   17   42 1    
    40   17   43 1    
    41   18   19 1    
    42   18   26 1    
    43   18   44 1    
    44   18   45 1    
    45   19   46 1    
    46   20   29 1    
    47   20   47 1    
    48   20   48 1    
    49   20   49 1    
    50   21   30 1    
    51   21   50 1    
    52   21   51 1    
    53   21   52 1    
    54   22   31 1    
    55   22   53 1    
    56   22   54 1    
    57   22   55 1    
    58   25   28 1    
@<TRIPOS>SUBSTRUCTURE
     1 UNK         1 GROUP             0       ****    0 ROOT    
@<TRIPOS>MOLECULE
ZINC12296573_16
53   56    1
SMALL
USER_CHARGES


@<TRIPOS>ATOM
      1 C1         -5.9349  -12.0682   36.4139 C.ar      1 UNK        -0.3541 
      2 C2         -5.4806  -11.5296   35.1954 C.ar      1 UNK        -0.0888 
      3 C3         -5.0258   -9.4052   36.3043 C.ar      1 UNK        -0.2243 
      4 C4         -7.5728   -4.6479   39.7512 C.ar      1 UNK        -0.1150 
      5 C5         -7.9855   -6.6867   38.4950 C.ar      1 UNK        -0.1150 
      6 C6         -5.4758   -9.9153   37.5426 C.ar      1 UNK         0.1233 
      7 C7         -7.5180   -6.0500   39.6629 C.ar      1 UNK        -0.1150 
      8 C8         -5.6160   -9.3846   38.8693 C.ar      1 UNK        -0.1749 
      9 C9         -5.9316  -11.2673   37.5673 C.ar      1 UNK         0.2860 
     10 C10        -5.0235  -10.1893   35.1330 C.ar      1 UNK         0.0267 
     11 C11        -8.0357   -3.8746   38.6608 C.ar      1 UNK         0.0850 
     12 C12        -8.4422   -5.9399   37.3819 C.ar      1 UNK         0.0850 
     13 C13        -8.4482   -4.5162   37.4682 C.ar      1 UNK         0.0850 
     14 C14        -6.1256  -10.3851   39.6476 C.ar      1 UNK        -0.0293 
     15 C15        -7.0515   -6.8526   40.8454 C.2       1 UNK         0.6150 
     16 C16        -5.3177   -8.0250   39.4303 C.3       1 UNK         0.0059 
     17 C17        -6.4478  -10.2436   41.1018 C.3       1 UNK        -0.0050 
     18 C18        -5.9140   -8.8941   41.6485 C.3       1 UNK        -0.0500 
     19 C19        -4.5431  -10.3365   32.7858 C.3       1 UNK         0.1100 
     20 C20        -7.7340   -1.8183   39.8776 C.3       1 UNK         0.1100 
     21 C21        -8.7628   -7.9603   36.0944 C.3       1 UNK         0.1100 
     22 C22        -8.6740   -4.0656   35.1074 C.3       1 UNK         0.1100 
     23 N23        -6.3195  -11.5131   38.8718 N.pl3     1 UNK        -0.4786 
     24 N24        -6.1194   -7.8196   40.6546 N.am      1 UNK        -0.1400 
     25 O25        -7.5476   -6.6186   41.9471 O.2       1 UNK        -0.5000 
     26 O26        -4.5685   -9.5786   33.9865 O.3       1 UNK        -0.3000 
     27 O27        -8.0983   -2.4956   38.6846 O.3       1 UNK        -0.2850 
     28 O28        -8.9081   -6.5534   36.2352 O.3       1 UNK        -0.2850 
     29 O29        -8.8682   -3.6730   36.4575 O.3       1 UNK        -0.2850 
     30 H30        -6.2835  -13.0884   36.4567 H         1 UNK         0.1796 
     31 H31        -5.4931  -12.1630   34.3213 H         1 UNK         0.1359 
     32 H32        -4.6789   -8.3850   36.2506 H         1 UNK         0.1699 
     33 H33        -7.2512   -4.1871   40.6731 H         1 UNK         0.1150 
     34 H34        -7.9858   -7.7659   38.4797 H         1 UNK         0.1150 
     35 H35        -4.2637   -7.9665   39.7035 H         1 UNK         0.0600 
     36 H36        -5.4496   -7.2501   38.6765 H         1 UNK         0.0600 
     37 H37        -7.5301  -10.2821   41.2328 H         1 UNK         0.0600 
     38 H38        -6.0311  -11.0738   41.6730 H         1 UNK         0.0600 
     39 H39        -6.3585   -8.6768   42.6213 H         1 UNK         0.0600 
     40 H40        -4.8414   -8.9772   41.8277 H         1 UNK         0.0600 
     41 H41        -4.1628   -9.7138   31.9761 H         1 UNK         0.0300 
     42 H42        -5.5426  -10.6698   32.5031 H         1 UNK         0.0300 
     43 H43        -3.8837  -11.2009   32.8746 H         1 UNK         0.0300 
     44 H44        -7.8699   -0.7462   39.7366 H         1 UNK         0.0300 
     45 H45        -6.6857   -1.9875   40.1271 H         1 UNK         0.0300 
     46 H46        -8.3611   -2.1216   40.7171 H         1 UNK         0.0300 
     47 H47        -9.0992   -8.2580   35.1016 H         1 UNK         0.0300 
     48 H48        -9.3699   -8.5003   36.8219 H         1 UNK         0.0300 
     49 H49        -7.7209   -8.2671   36.1912 H         1 UNK         0.0300 
     50 H50        -8.6402   -3.1748   34.4806 H         1 UNK         0.0300 
     51 H51        -9.5028   -4.6786   34.7528 H         1 UNK         0.0300 
     52 H52        -7.7345   -4.6019   34.9641 H         1 UNK         0.0300 
     53 H53        -6.6933  -12.3808   39.2261 H         1 UNK         0.3577 
@<TRIPOS>BOND
     1    1    2 ar   
     2    1    9 ar   
     3    1   30 1    
     4    2   10 ar   
     5    2   31 1    
     6    3    6 ar   
     7    3   10 ar   
     8    3   32 1    
     9    4    7 ar   
    10    4   11 ar   
    11    4   33 1    
    12    5    7 ar   
    13    5   12 ar   
    14    5   34 1    
    15    6    8 ar   
    16    6    9 ar   
    17    7   15 1    
    18    8   14 ar   
    19    8   16 1    
    20    9   23 ar   
    21   10   26 1    
    22   11   13 ar   
    23   11   27 1    
    24   12   13 ar   
    25   12   28 1    
    26   13   29 1    
    27   14   17 1    
    28   14   23 ar   
    29   15   24 am   BACKBONE|DICT|INTERRES
    30   15   25 2    
    31   16   24 1    
    32   16   35 1    
    33   16   36 1    
    34   17   18 1    
    35   17   37 1    
    36   17   38 1    
    37   18   24 1    
    38   18   39 1    
    39   18   40 1    
    40   19   26 1    
    41   19   41 1    
    42   19   42 1    
    43   19   43 1    
    44   20   27 1    
    45   20   44 1    
    46   20   45 1    
    47   20   46 1    
    48   21   28 1    
    49   21   47 1    
    50   21   48 1    
    51   21   49 1    
    52   22   29 1    
    53   22   50 1    
    54   22   51 1    
    55   22   52 1    
    56   23   53 1    
@<TRIPOS>SUBSTRUCTURE
     1 UNK         1 GROUP             0       ****    0 ROOT    
@<TRIPOS>MOLECULE
ZINC12327697_140
58   61    1
SMALL
USER_CHARGES


@<TRIPOS>ATOM
      1 C1         -5.0733   -9.7944   32.6317 C.ar      1 UNK        -0.1150 
      2 C2         -5.9473   -8.7619   33.0231 C.ar      1 UNK        -0.1150 
      3 C3         -4.2531  -10.4225   33.5894 C.ar      1 UNK        -0.1150 
      4 C4         -6.0119   -8.3662   34.3731 C.ar      1 UNK        -0.1150 
      5 C5         -8.4167   -5.8067   38.8613 C.ar      1 UNK        -0.1150 
      6 C6         -6.4494   -4.4053   39.1415 C.ar      1 UNK        -0.1150 
      7 C7         -4.3090  -10.0211   34.9420 C.ar      1 UNK        -0.1150 
      8 C8         -7.2118   -5.5212   39.5326 C.ar      1 UNK        -0.1150 
      9 C9         -5.2095   -9.0027   35.3404 C.ar      1 UNK         0.0850 
     10 C10        -8.8258   -5.0263   37.7552 C.ar      1 UNK         0.0850 
     11 C11        -6.8399   -3.5985   38.0442 C.ar      1 UNK         0.0850 
     12 C12        -8.0257   -3.9392   37.3301 C.ar      1 UNK         0.0850 
     13 C13        -3.4211  -10.6414   35.9522 C.2       1 UNK         0.5850 
     14 C14        -6.7681   -6.3487   40.7046 C.2       1 UNK         0.6150 
     15 C15        -3.4770  -10.0061   37.3355 C.3       1 UNK        -0.1200 
     16 C16        -4.8643   -9.0636   41.5550 C.3       1 UNK        -0.1200 
     17 C17        -4.6002   -9.7319   40.1928 C.3       1 UNK        -0.1200 
     18 C18        -6.3209   -8.5813   41.6649 C.3       1 UNK        -0.0500 
     19 C19        -6.5213   -8.3918   39.2502 C.3       1 UNK        -0.0500 
     20 C20        -5.0603   -8.8441   39.0120 C.3       1 UNK        -0.0600 
     21 C21        -4.9114   -9.5390   37.6392 C.3       1 UNK         0.1700 
     22 C22       -10.8309   -6.3285   37.4612 C.3       1 UNK         0.1100 
     23 C23        -4.9980   -2.0859   38.4338 C.3       1 UNK         0.1100 
     24 C24        -7.5576   -2.7022   35.3197 C.3       1 UNK         0.1100 
     25 N25        -6.6210   -7.6885   40.5390 N.am      1 UNK        -0.1400 
     26 O26        -2.6577  -11.5819   35.7334 O.2       1 UNK        -0.4700 
     27 O27        -6.5530   -5.7812   41.7749 O.2       1 UNK        -0.5000 
     28 O28        -5.3187   -8.5955   36.6502 O.3       1 UNK        -0.2850 
     29 O29        -9.9786   -5.2755   37.0376 O.3       1 UNK        -0.2850 
     30 O30        -6.1215   -2.4829   37.6609 O.3       1 UNK        -0.2850 
     31 O31        -8.4979   -3.2428   36.2353 O.3       1 UNK        -0.2850 
     32 H32        -5.0259  -10.0991   31.5959 H         1 UNK         0.1150 
     33 H33        -6.5715   -8.2736   32.2887 H         1 UNK         0.1150 
     34 H34        -3.5717  -11.2048   33.2842 H         1 UNK         0.1150 
     35 H35        -6.6878   -7.5774   34.6716 H         1 UNK         0.1150 
     36 H36        -9.0062   -6.6421   39.2062 H         1 UNK         0.1150 
     37 H37        -5.5583   -4.1898   39.7115 H         1 UNK         0.1150 
     38 H38        -3.1407  -10.7433   38.0631 H         1 UNK         0.0600 
     39 H39        -2.7822   -9.1675   37.3669 H         1 UNK         0.0600 
     40 H40        -4.6377   -9.7590   42.3642 H         1 UNK         0.0600 
     41 H41        -4.1915   -8.2140   41.6839 H         1 UNK         0.0600 
     42 H42        -3.5373   -9.9603   40.1139 H         1 UNK         0.0600 
     43 H43        -5.1254  -10.6874   40.1552 H         1 UNK         0.0600 
     44 H44        -7.0042   -9.4312   41.6422 H         1 UNK         0.0600 
     45 H45        -6.4820   -8.0993   42.6312 H         1 UNK         0.0600 
     46 H46        -6.8455   -7.7857   38.4076 H         1 UNK         0.0600 
     47 H47        -7.1891   -9.2542   39.2593 H         1 UNK         0.0600 
     48 H48        -4.4317   -7.9516   38.9987 H         1 UNK         0.0600 
     49 H49        -5.5884  -10.3956   37.6034 H         1 UNK         0.0300 
     50 H50       -11.7018   -6.3690   36.8071 H         1 UNK         0.0300 
     51 H51       -11.1909   -6.1655   38.4780 H         1 UNK         0.0300 
     52 H52       -10.3298   -7.2956   37.4029 H         1 UNK         0.0300 
     53 H53        -4.5811   -1.1702   38.0150 H         1 UNK         0.0300 
     54 H54        -4.2129   -2.8427   38.4149 H         1 UNK         0.0300 
     55 H55        -5.2775   -1.8761   39.4672 H         1 UNK         0.0300 
     56 H56        -8.0248   -2.6202   34.3388 H         1 UNK         0.0300 
     57 H57        -6.6754   -3.3352   35.2107 H         1 UNK         0.0300 
     58 H58        -7.2496   -1.6994   35.6166 H         1 UNK         0.0300 
@<TRIPOS>BOND
     1    1    2 ar   
     2    1    3 ar   
     3    1   32 1    
     4    2    4 ar   
     5    2   33 1    
     6    3    7 ar   
     7    3   34 1    
     8    4    9 ar   
     9    4   35 1    
    10    5    8 ar   
    11    5   10 ar   
    12    5   36 1    
    13    6    8 ar   
    14    6   11 ar   
    15    6   37 1    
    16    7    9 ar   
    17    7   13 1    
    18    8   14 1    
    19    9   28 1    
    20   10   12 ar   
    21   10   29 1    
    22   11   12 ar   
    23   11   30 1    
    24   12   31 1    
    25   13   15 1    
    26   13   26 2    
    27   14   25 am   BACKBONE|DICT|INTERRES
    28   14   27 2    
    29   15   21 1    
    30   15   38 1    
    31   15   39 1    
    32   16   17 1    
    33   16   18 1    
    34   16   40 1    
    35   16   41 1    
    36   17   20 1    
    37   17   42 1    
    38   17   43 1    
    39   18   25 1    
    40   18   44 1    
    41   18   45 1    
    42   19   20 1    
    43   19   25 1    
    44   19   46 1    
    45   19   47 1    
    46   20   21 1    
    47   20   48 1    
    48   21   28 1    
    49   21   49 1    
    50   22   29 1    
    51   22   50 1    
    52   22   51 1    
    53   22   52 1    
    54   23   30 1    
    55   23   53 1    
    56   23   54 1    
    57   23   55 1    
    58   24   31 1    
    59   24   56 1    
    60   24   57 1    
    61   24   58 1    
@<TRIPOS>SUBSTRUCTURE
     1 UNK         1 GROUP             0       ****    0 ROOT    
@<TRIPOS>MOLECULE
ZINC12327701_17
58   61    1
SMALL
USER_CHARGES


@<TRIPOS>ATOM
      1 C1         -3.9861  -12.1703   33.5317 C.ar      1 UNK        -0.1150 
      2 C2         -4.4403  -13.0504   34.5326 C.ar      1 UNK        -0.1150 
      3 C3         -4.0335  -10.7788   33.7446 C.ar      1 UNK        -0.1150 
      4 C4         -4.9296  -12.5407   35.7510 C.ar      1 UNK        -0.1150 
      5 C5         -7.3076   -4.2954   39.7007 C.ar      1 UNK        -0.1150 
      6 C6         -8.1707   -6.3890   38.7980 C.ar      1 UNK        -0.1150 
      7 C7         -4.5319  -10.2653   34.9618 C.ar      1 UNK        -0.1150 
      8 C8         -7.4585   -5.6925   39.7965 C.ar      1 UNK        -0.1150 
      9 C9         -4.9630  -11.1512   35.9800 C.ar      1 UNK         0.0850 
     10 C10        -7.8154   -3.5906   38.5825 C.ar      1 UNK         0.0850 
     11 C11        -8.6830   -5.7072   37.6701 C.ar      1 UNK         0.0850 
     12 C12        -8.4875   -4.3118   37.5661 C.ar      1 UNK         0.0850 
     13 C13        -4.6252   -8.8044   35.1824 C.2       1 UNK         0.5850 
     14 C14        -6.8996   -6.4233   40.9827 C.2       1 UNK         0.6150 
     15 C15        -5.3226   -8.3923   36.4714 C.3       1 UNK        -0.1200 
     16 C16        -5.9972   -9.8032   41.3742 C.3       1 UNK        -0.1200 
     17 C17        -5.3869  -10.1523   40.0039 C.3       1 UNK        -0.1200 
     18 C18        -5.6213   -8.3751   41.8081 C.3       1 UNK        -0.0500 
     19 C19        -5.3148   -7.6894   39.4912 C.3       1 UNK        -0.0500 
     20 C20        -5.6982   -9.0803   38.9322 C.3       1 UNK        -0.0600 
     21 C21        -4.9995   -9.4009   37.5902 C.3       1 UNK         0.1700 
     22 C22        -7.0771   -1.4745   39.4583 C.3       1 UNK         0.1100 
     23 C23        -9.6611   -7.7128   36.7684 C.3       1 UNK         0.1100 
     24 C24        -8.0136   -3.3023   35.5148 C.3       1 UNK         0.1100 
     25 N25        -6.0270   -7.4379   40.7546 N.am      1 UNK        -0.1400 
     26 O26        -4.2085   -7.9479   34.4026 O.2       1 UNK        -0.4700 
     27 O27        -7.2614   -6.0874   42.1090 O.2       1 UNK        -0.5000 
     28 O28        -5.4346  -10.6994   37.1917 O.3       1 UNK        -0.2850 
     29 O29        -7.6944   -2.2252   38.4234 O.3       1 UNK        -0.2850 
     30 O30        -9.3597   -6.3313   36.6423 O.3       1 UNK        -0.2850 
     31 O31        -8.9960   -3.6583   36.4729 O.3       1 UNK        -0.2850 
     32 H32        -3.6087  -12.5615   32.5974 H         1 UNK         0.1150 
     33 H33        -4.4113  -14.1178   34.3677 H         1 UNK         0.1150 
     34 H34        -3.6975  -10.1044   32.9688 H         1 UNK         0.1150 
     35 H35        -5.2712  -13.2187   36.5196 H         1 UNK         0.1150 
     36 H36        -6.7903   -3.7870   40.5006 H         1 UNK         0.1150 
     37 H37        -8.3132   -7.4508   38.9192 H         1 UNK         0.1150 
     38 H38        -4.9846   -7.3898   36.7280 H         1 UNK         0.0600 
     39 H39        -6.3954   -8.3433   36.2898 H         1 UNK         0.0600 
     40 H40        -7.0835   -9.8932   41.3230 H         1 UNK         0.0600 
     41 H41        -5.6661  -10.5218   42.1251 H         1 UNK         0.0600 
     42 H42        -4.3062  -10.2552   40.1113 H         1 UNK         0.0600 
     43 H43        -5.7527  -11.1287   39.6829 H         1 UNK         0.0600 
     44 H44        -6.0922   -8.1542   42.7679 H         1 UNK         0.0600 
     45 H45        -4.5463   -8.2944   41.9741 H         1 UNK         0.0600 
     46 H46        -4.2414   -7.6523   39.6832 H         1 UNK         0.0600 
     47 H47        -5.4925   -6.9044   38.7589 H         1 UNK         0.0600 
     48 H48        -6.7730   -9.0978   38.7521 H         1 UNK         0.0600 
     49 H49        -3.9198   -9.4307   37.7538 H         1 UNK         0.0300 
     50 H50        -7.0799   -0.4191   39.1860 H         1 UNK         0.0300 
     51 H51        -6.0383   -1.7736   39.6036 H         1 UNK         0.0300 
     52 H52        -7.6188   -1.5736   40.4000 H         1 UNK         0.0300 
     53 H53       -10.2358   -8.0347   35.9001 H         1 UNK         0.0300 
     54 H54       -10.2660   -7.9097   37.6546 H         1 UNK         0.0300 
     55 H55        -8.7552   -8.3186   36.8062 H         1 UNK         0.0300 
     56 H56        -8.4977   -2.8426   34.6534 H         1 UNK         0.0300 
     57 H57        -7.4727   -4.1824   35.1641 H         1 UNK         0.0300 
     58 H58        -7.2941   -2.5866   35.9133 H         1 UNK         0.0300 
@<TRIPOS>BOND
     1    1    2 ar   
     2    1    3 ar   
     3    1   32 1    
     4    2    4 ar   
     5    2   33 1    
     6    3    7 ar   
     7    3   34 1    
     8    4    9 ar   
     9    4   35 1    
    10    5    8 ar   
    11    5   10 ar   
    12    5   36 1    
    13    6    8 ar   
    14    6   11 ar   
    15    6   37 1    
    16    7    9 ar   
    17    7   13 1    
    18    8   14 1    
    19    9   28 1    
    20   10   12 ar   
    21   10   29 1    
    22   11   12 ar   
    23   11   30 1    
    24   12   31 1    
    25   13   15 1    
    26   13   26 2    
    27   14   25 am   BACKBONE|DICT|INTERRES
    28   14   27 2    
    29   15   21 1    
    30   15   38 1    
    31   15   39 1    
    32   16   17 1    
    33   16   18 1    
    34   16   40 1    
    35   16   41 1    
    36   17   20 1    
    37   17   42 1    
    38   17   43 1    
    39   18   25 1    
    40   18   44 1    
    41   18   45 1    
    42   19   20 1    
    43   19   25 1    
    44   19   46 1    
    45   19   47 1    
    46   20   21 1    
    47   20   48 1    
    48   21   28 1    
    49   21   49 1    
    50   22   29 1    
    51   22   50 1    
    52   22   51 1    
    53   22   52 1    
    54   23   30 1    
    55   23   53 1    
    56   23   54 1    
    57   23   55 1    
    58   24   31 1    
    59   24   56 1    
    60   24   57 1    
    61   24   58 1    
@<TRIPOS>SUBSTRUCTURE
     1 UNK         1 GROUP             0       ****    0 ROOT    
@<TRIPOS>MOLECULE
ZINC12327705_139
58   61    1
SMALL
USER_CHARGES


@<TRIPOS>ATOM
      1 C1         -2.3462  -11.5596   33.8267 C.ar      1 UNK        -0.1150 
      2 C2         -1.6352  -11.7929   35.0195 C.ar      1 UNK        -0.1150 
      3 C3         -3.4712  -10.7122   33.8335 C.ar      1 UNK        -0.1150 
      4 C4         -2.0552  -11.1896   36.2209 C.ar      1 UNK        -0.1150 
      5 C5         -6.3807   -4.3728   39.2968 C.ar      1 UNK        -0.1150 
      6 C6         -8.4268   -5.6526   38.9470 C.ar      1 UNK        -0.1150 
      7 C7         -3.8892  -10.1000   35.0352 C.ar      1 UNK        -0.1150 
      8 C8         -7.2100   -5.4598   39.6355 C.ar      1 UNK        -0.1150 
      9 C9         -3.1907  -10.3562   36.2408 C.ar      1 UNK         0.0850 
     10 C10        -6.7297   -3.5032   38.2363 C.ar      1 UNK         0.0850 
     11 C11        -8.7952   -4.7961   37.8823 C.ar      1 UNK         0.0850 
     12 C12        -7.9319   -3.7325   37.5304 C.ar      1 UNK         0.0850 
     13 C13        -5.0445   -9.1752   35.0483 C.2       1 UNK         0.5850 
     14 C14        -6.8159   -6.3644   40.7667 C.2       1 UNK         0.6150 
     15 C15        -5.2866   -8.4676   36.3743 C.3       1 UNK        -0.1200 
     16 C16        -4.9455   -9.1185   41.4682 C.3       1 UNK        -0.1200 
     17 C17        -4.6747   -9.7049   40.0703 C.3       1 UNK        -0.1200 
     18 C18        -6.4054   -8.6527   41.5973 C.3       1 UNK        -0.0500 
     19 C19        -6.5989   -8.3262   39.1966 C.3       1 UNK        -0.0500 
     20 C20        -5.1350   -8.7585   38.9348 C.3       1 UNK        -0.0600 
     21 C21        -4.9419   -9.4091   37.5439 C.3       1 UNK         0.1700 
     22 C22        -4.7675   -2.1511   38.5578 C.3       1 UNK         0.1100 
     23 C23       -10.8703   -5.9613   37.5247 C.3       1 UNK         0.1100 
     24 C24        -7.9397   -3.3966   35.2266 C.3       1 UNK         0.1100 
     25 N25        -6.6975   -7.6954   40.5237 N.am      1 UNK        -0.1400 
     26 O26        -5.7697   -8.9423   34.0812 O.2       1 UNK        -0.4700 
     27 O27        -6.6093   -5.8651   41.8717 O.2       1 UNK        -0.5000 
     28 O28        -3.5740   -9.8012   37.4410 O.3       1 UNK        -0.2850 
     29 O29        -5.9542   -2.4358   37.8331 O.3       1 UNK        -0.2850 
     30 O30        -9.9593   -4.9376   37.1553 O.3       1 UNK        -0.2850 
     31 O31        -8.2723   -2.8871   36.5065 O.3       1 UNK        -0.2850 
     32 H32        -2.0246  -12.0237   32.9050 H         1 UNK         0.1150 
     33 H33        -0.7679  -12.4370   35.0148 H         1 UNK         0.1150 
     34 H34        -4.0070  -10.5228   32.9134 H         1 UNK         0.1150 
     35 H35        -1.5112  -11.3750   37.1356 H         1 UNK         0.1150 
     36 H36        -5.4741   -4.2310   39.8658 H         1 UNK         0.1150 
     37 H37        -9.0612   -6.4706   39.2519 H         1 UNK         0.1150 
     38 H38        -4.6739   -7.5673   36.4092 H         1 UNK         0.0600 
     39 H39        -6.3303   -8.1591   36.4031 H         1 UNK         0.0600 
     40 H40        -4.7179   -9.8590   42.2361 H         1 UNK         0.0600 
     41 H41        -4.2774   -8.2748   41.6492 H         1 UNK         0.0600 
     42 H42        -3.6113   -9.9276   39.9733 H         1 UNK         0.0600 
     43 H43        -5.1933  -10.6603   39.9780 H         1 UNK         0.0600 
     44 H44        -7.0833   -9.5034   41.5192 H         1 UNK         0.0600 
     45 H45        -6.5766   -8.2298   42.5893 H         1 UNK         0.0600 
     46 H46        -6.9350   -7.6720   38.3979 H         1 UNK         0.0600 
     47 H47        -7.2610   -9.1925   39.1615 H         1 UNK         0.0600 
     48 H48        -4.5067   -7.8665   38.9710 H         1 UNK         0.0600 
     49 H49        -5.5632  -10.3058   37.4870 H         1 UNK         0.0300 
     50 H50        -4.2884   -1.2708   38.1298 H         1 UNK         0.0300 
     51 H51        -4.0559   -2.9754   38.4968 H         1 UNK         0.0300 
     52 H52        -4.9820   -1.9333   39.6050 H         1 UNK         0.0300 
     53 H53       -11.7418   -5.9182   36.8717 H         1 UNK         0.0300 
     54 H54       -11.2209   -5.8338   38.5499 H         1 UNK         0.0300 
     55 H55       -10.4245   -6.9506   37.4137 H         1 UNK         0.0300 
     56 H56        -8.2168   -2.6707   34.4624 H         1 UNK         0.0300 
     57 H57        -8.4679   -4.3265   35.0131 H         1 UNK         0.0300 
     58 H58        -6.8669   -3.5773   35.1440 H         1 UNK         0.0300 
@<TRIPOS>BOND
     1    1    2 ar   
     2    1    3 ar   
     3    1   32 1    
     4    2    4 ar   
     5    2   33 1    
     6    3    7 ar   
     7    3   34 1    
     8    4    9 ar   
     9    4   35 1    
    10    5    8 ar   
    11    5   10 ar   
    12    5   36 1    
    13    6    8 ar   
    14    6   11 ar   
    15    6   37 1    
    16    7    9 ar   
    17    7   13 1    
    18    8   14 1    
    19    9   28 1    
    20   10   12 ar   
    21   10   29 1    
    22   11   12 ar   
    23   11   30 1    
    24   12   31 1    
    25   13   15 1    
    26   13   26 2    
    27   14   25 am   BACKBONE|DICT|INTERRES
    28   14   27 2    
    29   15   21 1    
    30   15   38 1    
    31   15   39 1    
    32   16   17 1    
    33   16   18 1    
    34   16   40 1    
    35   16   41 1    
    36   17   20 1    
    37   17   42 1    
    38   17   43 1    
    39   18   25 1    
    40   18   44 1    
    41   18   45 1    
    42   19   20 1    
    43   19   25 1    
    44   19   46 1    
    45   19   47 1    
    46   20   21 1    
    47   20   48 1    
    48   21   28 1    
    49   21   49 1    
    50   22   29 1    
    51   22   50 1    
    52   22   51 1    
    53   22   52 1    
    54   23   30 1    
    55   23   53 1    
    56   23   54 1    
    57   23   55 1    
    58   24   31 1    
    59   24   56 1    
    60   24   57 1    
    61   24   58 1    
@<TRIPOS>SUBSTRUCTURE
     1 UNK         1 GROUP             0       ****    0 ROOT    
@<TRIPOS>MOLECULE
ZINC12327708_9
58   61    1
SMALL
USER_CHARGES


@<TRIPOS>ATOM
      1 C1         -4.4769   -8.8146   32.7694 C.ar      1 UNK        -0.1150 
      2 C2         -4.9014   -7.5710   33.2757 C.ar      1 UNK        -0.1150 
      3 C3         -4.3638   -9.9234   33.6309 C.ar      1 UNK        -0.1150 
      4 C4         -5.1992   -7.4318   34.6450 C.ar      1 UNK        -0.1150 
      5 C5         -6.8443   -3.9326   39.6744 C.ar      1 UNK        -0.1150 
      6 C6         -7.5926   -5.9951   38.6291 C.ar      1 UNK        -0.1150 
      7 C7         -4.6715   -9.7889   35.0024 C.ar      1 UNK        -0.1150 
      8 C8         -6.9865   -5.3312   39.7155 C.ar      1 UNK        -0.1150 
      9 C9         -5.0681   -8.5305   35.5165 C.ar      1 UNK         0.0850 
     10 C10        -7.2379   -3.2003   38.5300 C.ar      1 UNK         0.0850 
     11 C11        -7.9907   -5.2897   37.4668 C.ar      1 UNK         0.0850 
     12 C12        -7.7828   -3.8809   37.4155 C.ar      1 UNK         0.0850 
     13 C13        -4.6033  -10.9560   35.9108 C.2       1 UNK         0.5850 
     14 C14        -6.5465   -6.0819   40.9422 C.2       1 UNK         0.6150 
     15 C15        -5.1486  -10.7112   37.3112 C.3       1 UNK        -0.1200 
     16 C16        -5.6141   -9.4333   41.6279 C.3       1 UNK        -0.1200 
     17 C17        -5.0329   -9.8944   40.2763 C.3       1 UNK        -0.1200 
     18 C18        -5.2674   -7.9624   41.9320 C.3       1 UNK        -0.0500 
     19 C19        -4.9681   -7.4899   39.5693 C.3       1 UNK        -0.0500 
     20 C20        -5.3989   -8.9116   39.1413 C.3       1 UNK        -0.0600 
     21 C21        -4.8048   -9.2822   37.7655 C.3       1 UNK         0.1700 
     22 C22        -6.6170   -1.1068   39.5443 C.3       1 UNK         0.1100 
     23 C23        -8.8391   -7.3160   36.4578 C.3       1 UNK         0.1100 
     24 C24        -7.9487   -3.6154   35.0287 C.3       1 UNK         0.1100 
     25 N25        -5.6757   -7.1158   40.8020 N.am      1 UNK        -0.1400 
     26 O26        -4.1814  -12.0684   35.5957 O.2       1 UNK        -0.4700 
     27 O27        -6.9747   -5.7169   42.0362 O.2       1 UNK        -0.5000 
     28 O28        -5.3572   -8.3408   36.8475 O.3       1 UNK        -0.2850 
     29 O29        -7.1032   -1.8305   38.4241 O.3       1 UNK        -0.2850 
     30 O30        -8.5940   -5.9185   36.3950 O.3       1 UNK        -0.2850 
     31 O31        -8.1188   -3.0883   36.3358 O.3       1 UNK        -0.2850 
     32 H32        -4.2463   -8.9210   31.7189 H         1 UNK         0.1150 
     33 H33        -4.9963   -6.7214   32.6149 H         1 UNK         0.1150 
     34 H34        -4.0533  -10.8811   33.2361 H         1 UNK         0.1150 
     35 H35        -5.5214   -6.4757   35.0327 H         1 UNK         0.1150 
     36 H36        -6.4165   -3.4435   40.5368 H         1 UNK         0.1150 
     37 H37        -7.7399   -7.0593   38.7107 H         1 UNK         0.1150 
     38 H38        -6.2270  -10.8655   37.3003 H         1 UNK         0.0600 
     39 H39        -4.7142  -11.4501   37.9833 H         1 UNK         0.0600 
     40 H40        -6.6990   -9.5495   41.6146 H         1 UNK         0.0600 
     41 H41        -5.2496  -10.0761   42.4304 H         1 UNK         0.0600 
     42 H42        -3.9478   -9.9744   40.3562 H         1 UNK         0.0600 
     43 H43        -5.4012  -10.8969   40.0578 H         1 UNK         0.0600 
     44 H44        -5.7435   -7.6673   42.8690 H         1 UNK         0.0600 
     45 H45        -4.1948   -7.8493   42.0955 H         1 UNK         0.0600 
     46 H46        -3.8941   -7.4704   39.7599 H         1 UNK         0.0600 
     47 H47        -5.1074   -6.7722   38.7623 H         1 UNK         0.0600 
     48 H48        -6.4843   -8.9281   39.0354 H         1 UNK         0.0600 
     49 H49        -3.7202   -9.1573   37.7947 H         1 UNK         0.0300 
     50 H50        -6.6110   -0.0429   39.3078 H         1 UNK         0.0300 
     51 H51        -5.5944   -1.3949   39.7910 H         1 UNK         0.0300 
     52 H52        -7.2548   -1.2455   40.4184 H         1 UNK         0.0300 
     53 H53        -9.3230   -7.6357   35.5350 H         1 UNK         0.0300 
     54 H54        -9.5063   -7.5680   37.2831 H         1 UNK         0.0300 
     55 H55        -7.9132   -7.8825   36.5533 H         1 UNK         0.0300 
     56 H56        -7.7871   -2.7925   34.3329 H         1 UNK         0.0300 
     57 H57        -8.8416   -4.1463   34.6987 H         1 UNK         0.0300 
     58 H58        -7.0849   -4.2785   34.9584 H         1 UNK         0.0300 
@<TRIPOS>BOND
     1    1    2 ar   
     2    1    3 ar   
     3    1   32 1    
     4    2    4 ar   
     5    2   33 1    
     6    3    7 ar   
     7    3   34 1    
     8    4    9 ar   
     9    4   35 1    
    10    5    8 ar   
    11    5   10 ar   
    12    5   36 1    
    13    6    8 ar   
    14    6   11 ar   
    15    6   37 1    
    16    7    9 ar   
    17    7   13 1    
    18    8   14 1    
    19    9   28 1    
    20   10   12 ar   
    21   10   29 1    
    22   11   12 ar   
    23   11   30 1    
    24   12   31 1    
    25   13   15 1    
    26   13   26 2    
    27   14   25 am   BACKBONE|DICT|INTERRES
    28   14   27 2    
    29   15   21 1    
    30   15   38 1    
    31   15   39 1    
    32   16   17 1    
    33   16   18 1    
    34   16   40 1    
    35   16   41 1    
    36   17   20 1    
    37   17   42 1    
    38   17   43 1    
    39   18   25 1    
    40   18   44 1    
    41   18   45 1    
    42   19   20 1    
    43   19   25 1    
    44   19   46 1    
    45   19   47 1    
    46   20   21 1    
    47   20   48 1    
    48   21   28 1    
    49   21   49 1    
    50   22   29 1    
    51   22   50 1    
    52   22   51 1    
    53   22   52 1    
    54   23   30 1    
    55   23   53 1    
    56   23   54 1    
    57   23   55 1    
    58   24   31 1    
    59   24   56 1    
    60   24   57 1    
    61   24   58 1    
@<TRIPOS>SUBSTRUCTURE
     1 UNK         1 GROUP             0       ****    0 ROOT    
@<TRIPOS>MOLECULE
ZINC12371689_9
49   51    1
SMALL
USER_CHARGES


@<TRIPOS>ATOM
      1 C1         -4.6094   -8.6187   36.4014 C.ar      1 UNK        -0.1150 
      2 C2         -5.1172   -9.4929   37.3756 C.ar      1 UNK        -0.1150 
      3 C3         -4.3057   -7.2886   36.7389 C.ar      1 UNK        -0.1150 
      4 C4         -6.7324   -3.9281   39.5017 C.ar      1 UNK        -0.1150 
      5 C5         -7.6768   -6.0032   38.6428 C.ar      1 UNK        -0.1150 
      6 C6         -6.8449   -5.3322   39.5655 C.ar      1 UNK        -0.1150 
      7 C7         -5.3578   -9.0336   38.6845 C.ar      1 UNK        -0.1150 
      8 C8         -5.1171   -7.6724   39.0158 C.ar      1 UNK        -0.0383 
      9 C9         -4.5353   -6.8036   38.0503 C.ar      1 UNK         0.0850 
     10 C10        -7.3912   -3.1938   38.4874 C.ar      1 UNK         0.0850 
     11 C11        -8.3361   -5.2919   37.6129 C.ar      1 UNK         0.0850 
     12 C12        -8.1812   -3.8887   37.5444 C.ar      1 UNK         0.0850 
     13 C13        -6.1141   -6.0830   40.6493 C.2       1 UNK         0.6150 
     14 C14        -5.8342  -10.0407   39.7260 C.3       1 UNK        -0.0050 
     15 C15        -6.0996   -9.4418   41.1179 C.3       1 UNK        -0.1200 
     16 C16        -5.2152   -8.2196   41.4013 C.3       1 UNK        -0.0500 
     17 C17        -3.8621   -4.5750   37.4398 C.3       1 UNK         0.1100 
     18 C18        -6.5519   -1.1002   39.3164 C.3       1 UNK         0.1100 
     19 C19        -9.2140   -7.3093   36.6447 C.3       1 UNK         0.1100 
     20 C20        -8.0517   -3.0992   35.3638 C.3       1 UNK         0.1100 
     21 N21        -5.4374   -7.2284   40.3423 N.am      1 UNK        -0.0317 
     22 O22        -6.1575   -5.6236   41.7930 O.2       1 UNK        -0.5000 
     23 O23        -4.1840   -5.5282   38.4424 O.3       1 UNK        -0.2850 
     24 O24        -7.2951   -1.8244   38.3478 O.3       1 UNK        -0.2850 
     25 O25        -9.1241   -5.8926   36.6525 O.3       1 UNK        -0.2850 
     26 O26        -8.8157   -3.1858   36.5535 O.3       1 UNK        -0.2850 
     27 H27        -4.4219   -8.9767   35.3996 H         1 UNK         0.1150 
     28 H28        -5.3081  -10.5250   37.1176 H         1 UNK         0.1150 
     29 H29        -3.8766   -6.6629   35.9719 H         1 UNK         0.1150 
     30 H30        -6.1112   -3.4394   40.2372 H         1 UNK         0.1150 
     31 H31        -7.7785   -7.0737   38.7305 H         1 UNK         0.1150 
     32 H32        -6.7228  -10.5578   39.3618 H         1 UNK         0.0600 
     33 H33        -5.0529  -10.7969   39.8145 H         1 UNK         0.0600 
     34 H34        -7.1414   -9.1216   41.1690 H         1 UNK         0.0600 
     35 H35        -5.9803  -10.2030   41.8896 H         1 UNK         0.0600 
     36 H36        -5.4167   -7.8430   42.4057 H         1 UNK         0.0600 
     37 H37        -4.1623   -8.5043   41.3957 H         1 UNK         0.0600 
     38 H38        -3.7454   -3.5954   37.9032 H         1 UNK         0.0300 
     39 H39        -4.6579   -4.4929   36.6977 H         1 UNK         0.0300 
     40 H40        -2.9225   -4.8192   36.9430 H         1 UNK         0.0300 
     41 H41        -6.6014   -0.0363   39.0854 H         1 UNK         0.0300 
     42 H42        -5.5005   -1.3904   39.3097 H         1 UNK         0.0300 
     43 H43        -6.9603   -1.2391   40.3184 H         1 UNK         0.0300 
     44 H44        -9.8298   -7.6258   35.8031 H         1 UNK         0.0300 
     45 H45        -9.6842   -7.6833   37.5551 H         1 UNK         0.0300 
     46 H46        -8.2325   -7.7715   36.5272 H         1 UNK         0.0300 
     47 H47        -8.5970   -2.5188   34.6200 H         1 UNK         0.0300 
     48 H48        -7.8581   -4.0872   34.9440 H         1 UNK         0.0300 
     49 H49        -7.0970   -2.6027   35.5441 H         1 UNK         0.0300 
@<TRIPOS>BOND
     1    1    2 ar   
     2    1    3 ar   
     3    1   27 1    
     4    2    7 ar   
     5    2   28 1    
     6    3    9 ar   
     7    3   29 1    
     8    4    6 ar   
     9    4   10 ar   
    10    4   30 1    
    11    5    6 ar   
    12    5   11 ar   
    13    5   31 1    
    14    6   13 1    
    15    7    8 ar   
    16    7   14 1    
    17    8    9 ar   
    18    8   21 1    
    19    9   23 1    
    20   10   12 ar   
    21   10   24 1    
    22   11   12 ar   
    23   11   25 1    
    24   12   26 1    
    25   13   21 am   BACKBONE|DICT|INTERRES
    26   13   22 2    
    27   14   15 1    
    28   14   32 1    
    29   14   33 1    
    30   15   16 1    
    31   15   34 1    
    32   15   35 1    
    33   16   21 1    
    34   16   36 1    
    35   16   37 1    
    36   17   23 1    
    37   17   38 1    
    38   17   39 1    
    39   17   40 1    
    40   18   24 1    
    41   18   41 1    
    42   18   42 1    
    43   18   43 1    
    44   19   25 1    
    45   19   44 1    
    46   19   45 1    
    47   19   46 1    
    48   20   26 1    
    49   20   47 1    
    50   20   48 1    
    51   20   49 1    
@<TRIPOS>SUBSTRUCTURE
     1 UNK         1 GROUP             0       ****    0 ROOT    
@<TRIPOS>MOLECULE
ZINC12406601_10
49   52    1
SMALL
USER_CHARGES


@<TRIPOS>ATOM
      1 C1         -6.1838  -12.0842   36.3394 C.ar      1 UNK        -0.3541 
      2 C2         -5.8104  -11.5515   35.0903 C.ar      1 UNK        -0.0888 
      3 C3         -5.2795   -9.4152   36.1515 C.ar      1 UNK        -0.2243 
      4 C4         -7.5043   -4.6038   39.7664 C.ar      1 UNK        -0.1150 
      5 C5         -8.0514   -6.6327   38.5461 C.ar      1 UNK        -0.1150 
      6 C6         -5.6452   -9.9192   37.4206 C.ar      1 UNK         0.1233 
      7 C7         -7.4862   -6.0069   39.6758 C.ar      1 UNK        -0.1150 
      8 C8         -5.6911   -9.3821   38.7515 C.ar      1 UNK        -0.1749 
      9 C9         -6.1010  -11.2727   37.4843 C.ar      1 UNK         0.2860 
     10 C10        -8.0267   -3.8200   38.7109 C.ar      1 UNK         0.0850 
     11 C11        -8.5708   -5.8754   37.4680 C.ar      1 UNK         0.0850 
     12 C12        -8.5358   -4.4520   37.5511 C.ar      1 UNK         0.0850 
     13 C13        -5.3613  -10.2203   34.9991 C.ar      1 UNK         0.1467 
     14 C14        -6.1504  -10.3767   39.5675 C.ar      1 UNK        -0.0293 
     15 C15        -6.9518   -6.8202   40.8215 C.2       1 UNK         0.6150 
     16 C16        -5.3460   -8.0223   39.2853 C.3       1 UNK         0.0059 
     17 C17        -6.3719  -10.2275   41.0397 C.3       1 UNK        -0.0050 
     18 C18        -5.7928   -8.8804   41.5438 C.3       1 UNK        -0.0500 
     19 C19        -7.6317   -1.7726   39.9160 C.3       1 UNK         0.1100 
     20 C20        -9.1076   -7.8931   36.2488 C.3       1 UNK         0.1100 
     21 C21        -8.9151   -3.9938   35.2114 C.3       1 UNK         0.1100 
     22 N22        -6.3998  -11.5087   38.8133 N.pl3     1 UNK        -0.4786 
     23 N23        -6.0563   -7.8061   40.5633 N.am      1 UNK        -0.1400 
     24 O24        -7.3613   -6.5770   41.9562 O.2       1 UNK        -0.5000 
     25 O25        -8.0584   -2.4400   38.7381 O.3       1 UNK        -0.2850 
     26 O26        -9.1333   -6.4767   36.3588 O.3       1 UNK        -0.2850 
     27 O27        -9.0086   -3.5998   36.5719 O.3       1 UNK        -0.2850 
     28 F28        -5.0080   -9.7102   33.7978 F         1 UNK        -0.2200 
     29 H29        -6.5293  -13.1041   36.4104 H         1 UNK         0.1796 
     30 H30        -5.8659  -12.1564   34.1966 H         1 UNK         0.1359 
     31 H31        -4.9350   -8.3973   36.0584 H         1 UNK         0.1699 
     32 H32        -7.1075   -4.1502   40.6622 H         1 UNK         0.1150 
     33 H33        -8.0749   -7.7115   38.5326 H         1 UNK         0.1150 
     34 H34        -4.2750   -7.9693   39.4836 H         1 UNK         0.0600 
     35 H35        -5.5254   -7.2492   38.5398 H         1 UNK         0.0600 
     36 H36        -7.4427  -10.2576   41.2447 H         1 UNK         0.0600 
     37 H37        -5.9234  -11.0583   41.5853 H         1 UNK         0.0600 
     38 H38        -6.1702   -8.6581   42.5435 H         1 UNK         0.0600 
     39 H39        -4.7113   -8.9715   41.6518 H         1 UNK         0.0600 
     40 H40        -7.7636   -0.6984   39.7873 H         1 UNK         0.0300 
     41 H41        -6.5746   -1.9532   40.1152 H         1 UNK         0.0300 
     42 H42        -8.2219   -2.0742   40.7826 H         1 UNK         0.0300 
     43 H43        -9.5525   -8.1863   35.2980 H         1 UNK         0.0300 
     44 H44        -9.6880   -8.3664   37.0418 H         1 UNK         0.0300 
     45 H45        -8.0873   -8.2784   36.2649 H         1 UNK         0.0300 
     46 H46        -8.9033   -3.1023   34.5848 H         1 UNK         0.0300 
     47 H47        -9.7806   -4.5857   34.9130 H         1 UNK         0.0300 
     48 H48        -8.0006   -4.5518   35.0040 H         1 UNK         0.0300 
     49 H49        -6.7506  -12.3733   39.1985 H         1 UNK         0.3577 
@<TRIPOS>BOND
     1    1    2 ar   
     2    1    9 ar   
     3    1   29 1    
     4    2   13 ar   
     5    2   30 1    
     6    3    6 ar   
     7    3   13 ar   
     8    3   31 1    
     9    4    7 ar   
    10    4   10 ar   
    11    4   32 1    
    12    5    7 ar   
    13    5   11 ar   
    14    5   33 1    
    15    6    8 ar   
    16    6    9 ar   
    17    7   15 1    
    18    8   14 ar   
    19    8   16 1    
    20    9   22 ar   
    21   10   12 ar   
    22   10   25 1    
    23   11   12 ar   
    24   11   26 1    
    25   12   27 1    
    26   13   28 1    
    27   14   17 1    
    28   14   22 ar   
    29   15   23 am   BACKBONE|DICT|INTERRES
    30   15   24 2    
    31   16   23 1    
    32   16   34 1    
    33   16   35 1    
    34   17   18 1    
    35   17   36 1    
    36   17   37 1    
    37   18   23 1    
    38   18   38 1    
    39   18   39 1    
    40   19   25 1    
    41   19   40 1    
    42   19   41 1    
    43   19   42 1    
    44   20   26 1    
    45   20   43 1    
    46   20   44 1    
    47   20   45 1    
    48   21   27 1    
    49   21   46 1    
    50   21   47 1    
    51   21   48 1    
    52   22   49 1    
@<TRIPOS>SUBSTRUCTURE
     1 UNK         1 GROUP             0       ****    0 ROOT    
@<TRIPOS>MOLECULE
ZINC12417681_19
47   48    1
SMALL
USER_CHARGES


@<TRIPOS>ATOM
      1 C1         -6.7524   -4.1209   39.4594 C.ar      1 UNK        -0.1150 
      2 C2         -8.1247   -5.9615   38.6387 C.ar      1 UNK        -0.1150 
      3 C3         -7.1710   -5.4626   39.5505 C.ar      1 UNK        -0.1150 
      4 C4         -7.2413   -3.2800   38.4311 C.ar      1 UNK         0.0850 
      5 C5         -8.6236   -5.1410   37.5995 C.ar      1 UNK         0.0850 
      6 C6         -8.1656   -3.8079   37.4973 C.ar      1 UNK         0.0850 
      7 C7         -6.6565   -6.3241   40.6672 C.2       1 UNK         0.6150 
      8 C8         -4.7708  -10.0882   39.7585 C.3       1 UNK        -0.1200 
      9 C9         -5.6009   -9.8742   41.0207 C.3       1 UNK        -0.1200 
     10 C10        -5.3315   -9.2096   38.6441 C.3       1 UNK        -0.1200 
     11 C11        -5.6191   -8.3993   41.4668 C.3       1 UNK         0.0100 
     12 C12        -5.3612   -7.7150   39.0220 C.3       1 UNK         0.0100 
     13 C13        -4.3352   -7.9968   42.2202 C.3       1 UNK        -0.1800 
     14 C14        -3.9883   -7.0350   38.8593 C.3       1 UNK        -0.1800 
     15 C15        -5.9991   -1.3915   39.2552 C.3       1 UNK         0.1100 
     16 C16       -10.0487   -6.8886   36.7631 C.3       1 UNK         0.1100 
     17 C17        -7.7503   -2.7970   35.4320 C.3       1 UNK         0.1100 
     18 N18        -5.9452   -7.4502   40.3680 N.am      1 UNK        -0.1400 
     19 O19        -6.9122   -5.9745   41.8197 O.2       1 UNK        -0.5000 
     20 O20        -6.8720   -1.9578   38.2892 O.3       1 UNK        -0.2850 
     21 O21        -9.5364   -5.5694   36.6577 O.3       1 UNK        -0.2850 
     22 O22        -8.6651   -3.0182   36.4927 O.3       1 UNK        -0.2850 
     23 H23        -6.0529   -3.7604   40.1985 H         1 UNK         0.1150 
     24 H24        -8.4549   -6.9823   38.7555 H         1 UNK         0.1150 
     25 H25        -3.7229   -9.8507   39.9437 H         1 UNK         0.0600 
     26 H26        -4.8041  -11.1370   39.4616 H         1 UNK         0.0600 
     27 H27        -6.6242  -10.2029   40.8323 H         1 UNK         0.0600 
     28 H28        -5.2302  -10.5088   41.8268 H         1 UNK         0.0600 
     29 H29        -4.7597   -9.3572   37.7268 H         1 UNK         0.0600 
     30 H30        -6.3466   -9.5383   38.4155 H         1 UNK         0.0600 
     31 H31        -6.4212   -8.3534   42.2073 H         1 UNK         0.0600 
     32 H32        -5.9803   -7.2720   38.2463 H         1 UNK         0.0600 
     33 H33        -4.3840   -6.9639   42.5669 H         1 UNK         0.0600 
     34 H34        -3.4430   -8.1006   41.6065 H         1 UNK         0.0600 
     35 H35        -4.1927   -8.6228   43.1012 H         1 UNK         0.0600 
     36 H36        -4.0384   -5.9729   39.1011 H         1 UNK         0.0600 
     37 H37        -3.6365   -7.1139   37.8302 H         1 UNK         0.0600 
     38 H38        -3.2258   -7.4848   39.4920 H         1 UNK         0.0600 
     39 H39        -5.8331   -0.3410   39.0169 H         1 UNK         0.0300 
     40 H40        -5.0272   -1.8869   39.2527 H         1 UNK         0.0300 
     41 H41        -6.4280   -1.4376   40.2573 H         1 UNK         0.0300 
     42 H42       -10.7694   -7.0581   35.9632 H         1 UNK         0.0300 
     43 H43       -10.5665   -7.0411   37.7110 H         1 UNK         0.0300 
     44 H44        -9.2584   -7.6328   36.6573 H         1 UNK         0.0300 
     45 H45        -8.2326   -2.2030   34.6558 H         1 UNK         0.0300 
     46 H46        -7.4372   -3.7415   34.9844 H         1 UNK         0.0300 
     47 H47        -6.8627   -2.2561   35.7607 H         1 UNK         0.0300 
@<TRIPOS>BOND
     1    1    3 ar   
     2    1    4 ar   
     3    1   23 1    
     4    2    3 ar   
     5    2    5 ar   
     6    2   24 1    
     7    3    7 1    
     8    4    6 ar   
     9    4   20 1    
    10    5    6 ar   
    11    5   21 1    
    12    6   22 1    
    13    7   18 am   BACKBONE|DICT|INTERRES
    14    7   19 2    
    15    8    9 1    
    16    8   10 1    
    17    8   25 1    
    18    8   26 1    
    19    9   11 1    
    20    9   27 1    
    21    9   28 1    
    22   10   12 1    
    23   10   29 1    
    24   10   30 1    
    25   11   13 1    
    26   11   18 1    
    27   11   31 1    
    28   12   14 1    
    29   12   18 1    
    30   12   32 1    
    31   13   33 1    
    32   13   34 1    
    33   13   35 1    
    34   14   36 1    
    35   14   37 1    
    36   14   38 1    
    37   15   20 1    
    38   15   39 1    
    39   15   40 1    
    40   15   41 1    
    41   16   21 1    
    42   16   42 1    
    43   16   43 1    
    44   16   44 1    
    45   17   22 1    
    46   17   45 1    
    47   17   46 1    
    48   17   47 1    
@<TRIPOS>SUBSTRUCTURE
     1 UNK         1 GROUP             0       ****    0 ROOT    
@<TRIPOS>MOLECULE
ZINC12441487_37
49   51    1
SMALL
USER_CHARGES


@<TRIPOS>ATOM
      1 C1         -3.7079  -10.1287   35.0594 C.ar      1 UNK        -0.1150 
      2 C2         -3.8941  -11.0202   36.1336 C.ar      1 UNK        -0.1150 
      3 C3         -3.8656   -8.7438   35.2597 C.ar      1 UNK        -0.1150 
      4 C4         -4.2376  -10.5268   37.4075 C.ar      1 UNK        -0.1150 
      5 C5         -4.2079   -8.2507   36.5341 C.ar      1 UNK        -0.1150 
      6 C6         -6.6183   -4.3406   39.3561 C.ar      1 UNK        -0.1150 
      7 C7         -8.3999   -5.8939   38.7582 C.ar      1 UNK        -0.1150 
      8 C8         -7.2832   -5.5668   39.5570 C.ar      1 UNK        -0.1150 
      9 C9         -4.3902   -9.1392   37.6154 C.ar      1 UNK        -0.0418 
     10 C10        -7.0281   -3.4551   38.3307 C.ar      1 UNK         0.0850 
     11 C11        -8.8235   -5.0271   37.7231 C.ar      1 UNK         0.0850 
     12 C12        -8.1254   -3.8167   37.5137 C.ar      1 UNK         0.0850 
     13 C13        -6.8379   -6.4750   40.6670 C.2       1 UNK         0.6150 
     14 C14        -6.2467   -8.7446   41.4256 C.3       1 UNK        -0.0500 
     15 C15        -6.2974   -8.3246   39.0557 C.3       1 UNK        -0.0500 
     16 C16        -4.7362   -9.0142   41.3365 C.3       1 UNK         0.1400 
     17 C17        -4.7816   -8.5979   38.9804 C.3       1 UNK         0.2118 
     18 C18        -5.3546   -1.8323   38.9257 C.3       1 UNK         0.1100 
     19 C19       -10.6067   -6.5048   37.0711 C.3       1 UNK         0.1100 
     20 C20        -7.7490   -3.0345   35.3494 C.3       1 UNK         0.1100 
     21 N21        -6.5985   -7.7774   40.3838 N.am      1 UNK        -0.1400 
     22 O22        -6.7038   -6.0055   41.7958 O.2       1 UNK        -0.5000 
     23 O23        -4.4270   -9.4988   40.0316 O.3       1 UNK        -0.4000 
     24 O24        -6.4164   -2.2442   38.0780 O.3       1 UNK        -0.2850 
     25 O25        -9.8853   -5.2968   36.8846 O.3       1 UNK        -0.2850 
     26 O26        -8.5492   -2.9748   36.5178 O.3       1 UNK        -0.2850 
     27 H27        -3.4443  -10.5075   34.0824 H         1 UNK         0.1150 
     28 H28        -3.7731  -12.0832   35.9819 H         1 UNK         0.1150 
     29 H29        -3.7235   -8.0598   34.4354 H         1 UNK         0.1150 
     30 H30        -4.3808  -11.2152   38.2282 H         1 UNK         0.1150 
     31 H31        -4.3297   -7.1871   36.6803 H         1 UNK         0.1150 
     32 H32        -5.7913   -4.1014   40.0082 H         1 UNK         0.1150 
     33 H33        -8.9157   -6.8211   38.9554 H         1 UNK         0.1150 
     34 H34        -6.8045   -9.6693   41.2728 H         1 UNK         0.0600 
     35 H35        -6.5094   -8.3959   42.4259 H         1 UNK         0.0600 
     36 H36        -6.5761   -7.6637   38.2370 H         1 UNK         0.0600 
     37 H37        -6.8573   -9.2479   38.9015 H         1 UNK         0.0600 
     38 H38        -4.1621   -8.1108   41.5497 H         1 UNK         0.0300 
     39 H39        -4.4403   -9.7623   42.0724 H         1 UNK         0.0300 
     40 H40        -4.2326   -7.6659   39.1300 H         1 UNK         0.0300 
     41 H41        -5.0022   -0.8511   38.6077 H         1 UNK         0.0300 
     42 H42        -4.5095   -2.5197   38.8690 H         1 UNK         0.0300 
     43 H43        -5.6828   -1.7444   39.9622 H         1 UNK         0.0300 
     44 H44       -11.4090   -6.5610   36.3354 H         1 UNK         0.0300 
     45 H45       -11.0640   -6.5471   38.0604 H         1 UNK         0.0300 
     46 H46        -9.9673   -7.3771   36.9287 H         1 UNK         0.0300 
     47 H47        -8.1529   -2.3567   34.5977 H         1 UNK         0.0300 
     48 H48        -7.7500   -4.0410   34.9284 H         1 UNK         0.0300 
     49 H49        -6.7178   -2.7392   35.5453 H         1 UNK         0.0300 
@<TRIPOS>BOND
     1    1    2 ar   
     2    1    3 ar   
     3    1   27 1    
     4    2    4 ar   
     5    2   28 1    
     6    3    5 ar   
     7    3   29 1    
     8    4    9 ar   
     9    4   30 1    
    10    5    9 ar   
    11    5   31 1    
    12    6    8 ar   
    13    6   10 ar   
    14    6   32 1    
    15    7    8 ar   
    16    7   11 ar   
    17    7   33 1    
    18    8   13 1    
    19    9   17 1    
    20   10   12 ar   
    21   10   24 1    
    22   11   12 ar   
    23   11   25 1    
    24   12   26 1    
    25   13   21 am   BACKBONE|DICT|INTERRES
    26   13   22 2    
    27   14   16 1    
    28   14   21 1    
    29   14   34 1    
    30   14   35 1    
    31   15   17 1    
    32   15   21 1    
    33   15   36 1    
    34   15   37 1    
    35   16   23 1    
    36   16   38 1    
    37   16   39 1    
    38   17   23 1    
    39   17   40 1    
    40   18   24 1    
    41   18   41 1    
    42   18   42 1    
    43   18   43 1    
    44   19   25 1    
    45   19   44 1    
    46   19   45 1    
    47   19   46 1    
    48   20   26 1    
    49   20   47 1    
    50   20   48 1    
    51   20   49 1    
@<TRIPOS>SUBSTRUCTURE
     1 UNK         1 GROUP             0       ****    0 ROOT    
@<TRIPOS>MOLECULE
ZINC12441489_29
49   51    1
SMALL
USER_CHARGES


@<TRIPOS>ATOM
      1 C1         -4.2434  -10.1688   34.9420 C.ar      1 UNK        -0.1150 
      2 C2         -3.7844  -10.8533   36.0839 C.ar      1 UNK        -0.1150 
      3 C3         -5.1949   -9.1395   35.0751 C.ar      1 UNK        -0.1150 
      4 C4         -4.2777  -10.5101   37.3583 C.ar      1 UNK        -0.1150 
      5 C5         -5.6882   -8.7971   36.3491 C.ar      1 UNK        -0.1150 
      6 C6         -6.9285   -4.1382   39.6931 C.ar      1 UNK        -0.1150 
      7 C7         -7.9387   -6.1282   38.7124 C.ar      1 UNK        -0.1150 
      8 C8         -7.1654   -5.5264   39.7280 C.ar      1 UNK        -0.1150 
      9 C9         -5.2360   -9.4825   37.4975 C.ar      1 UNK        -0.0418 
     10 C10        -7.4100   -3.3518   38.6193 C.ar      1 UNK         0.0850 
     11 C11        -8.4263   -5.3629   37.6271 C.ar      1 UNK         0.0850 
     12 C12        -8.1405   -3.9781   37.5844 C.ar      1 UNK         0.0850 
     13 C13        -6.6433   -6.3384   40.8778 C.2       1 UNK         0.6150 
     14 C14        -5.4595   -8.3785   41.6238 C.3       1 UNK        -0.0500 
     15 C15        -5.2297   -7.7248   39.3169 C.3       1 UNK        -0.0500 
     16 C16        -5.9781   -9.7505   41.1606 C.3       1 UNK         0.1400 
     17 C17        -5.7747   -9.0939   38.8658 C.3       1 UNK         0.2118 
     18 C18        -6.5576   -1.3213   39.5832 C.3       1 UNK         0.1100 
     19 C19        -9.6302   -7.2327   36.7075 C.3       1 UNK         0.1100 
     20 C20        -7.8123   -3.3077   35.3773 C.3       1 UNK         0.1100 
     21 N21        -5.8329   -7.3898   40.6107 N.am      1 UNK        -0.1400 
     22 O22        -6.9721   -6.0235   42.0198 O.2       1 UNK        -0.5000 
     23 O23        -5.4466  -10.0548   39.8717 O.3       1 UNK        -0.4000 
     24 O24        -7.1990   -1.9930   38.5097 O.3       1 UNK        -0.2850 
     25 O25        -9.1729   -5.8933   36.5951 O.3       1 UNK        -0.2850 
     26 O26        -8.6076   -3.2136   36.5466 O.3       1 UNK        -0.2850 
     27 H27        -3.8650  -10.4327   33.9649 H         1 UNK         0.1150 
     28 H28        -3.0535  -11.6426   35.9838 H         1 UNK         0.1150 
     29 H29        -5.5456   -8.6119   34.1997 H         1 UNK         0.1150 
     30 H30        -3.9192  -11.0408   38.2286 H         1 UNK         0.1150 
     31 H31        -6.4134   -8.0019   36.4418 H         1 UNK         0.1150 
     32 H32        -6.3650   -3.6997   40.5032 H         1 UNK         0.1150 
     33 H33        -8.1496   -7.1826   38.7865 H         1 UNK         0.1150 
     34 H34        -5.8664   -8.1475   42.6099 H         1 UNK         0.0600 
     35 H35        -4.3749   -8.3985   41.7374 H         1 UNK         0.0600 
     36 H36        -4.1455   -7.7771   39.4267 H         1 UNK         0.0600 
     37 H37        -5.4018   -6.9661   38.5544 H         1 UNK         0.0600 
     38 H38        -5.6713  -10.5269   41.8619 H         1 UNK         0.0300 
     39 H39        -7.0688   -9.7642   41.1268 H         1 UNK         0.0300 
     40 H40        -6.8613   -9.0563   38.7779 H         1 UNK         0.0300 
     41 H41        -6.5170   -0.2542   39.3650 H         1 UNK         0.0300 
     42 H42        -5.5326   -1.6699   39.7157 H         1 UNK         0.0300 
     43 H43        -7.1072   -1.4455   40.5172 H         1 UNK         0.0300 
     44 H44       -10.2685   -7.4659   35.8553 H         1 UNK         0.0300 
     45 H45       -10.2232   -7.3775   37.6115 H         1 UNK         0.0300 
     46 H46        -8.8024   -7.9420   36.7006 H         1 UNK         0.0300 
     47 H47        -8.2279   -2.6649   34.6015 H         1 UNK         0.0300 
     48 H48        -7.7832   -4.3259   34.9879 H         1 UNK         0.0300 
     49 H49        -6.7905   -2.9794   35.5731 H         1 UNK         0.0300 
@<TRIPOS>BOND
     1    1    2 ar   
     2    1    3 ar   
     3    1   27 1    
     4    2    4 ar   
     5    2   28 1    
     6    3    5 ar   
     7    3   29 1    
     8    4    9 ar   
     9    4   30 1    
    10    5    9 ar   
    11    5   31 1    
    12    6    8 ar   
    13    6   10 ar   
    14    6   32 1    
    15    7    8 ar   
    16    7   11 ar   
    17    7   33 1    
    18    8   13 1    
    19    9   17 1    
    20   10   12 ar   
    21   10   24 1    
    22   11   12 ar   
    23   11   25 1    
    24   12   26 1    
    25   13   21 am   BACKBONE|DICT|INTERRES
    26   13   22 2    
    27   14   16 1    
    28   14   21 1    
    29   14   34 1    
    30   14   35 1    
    31   15   17 1    
    32   15   21 1    
    33   15   36 1    
    34   15   37 1    
    35   16   23 1    
    36   16   38 1    
    37   16   39 1    
    38   17   23 1    
    39   17   40 1    
    40   18   24 1    
    41   18   41 1    
    42   18   42 1    
    43   18   43 1    
    44   19   25 1    
    45   19   44 1    
    46   19   45 1    
    47   19   46 1    
    48   20   26 1    
    49   20   47 1    
    50   20   48 1    
    51   20   49 1    
@<TRIPOS>SUBSTRUCTURE
     1 UNK         1 GROUP             0       ****    0 ROOT    
@<TRIPOS>MOLECULE
ZINC12442857_76
47   48    1
SMALL
USER_CHARGES


@<TRIPOS>ATOM
      1 C1        -13.9133  -12.7079   38.4037 C.ar      1 UNK        -0.1150 
      2 C2        -14.7735  -11.6733   37.9945 C.ar      1 UNK        -0.1150 
      3 C3        -12.4519  -11.0652   39.4176 C.ar      1 UNK        -0.1150 
      4 C4        -12.7361  -12.4157   39.1255 C.ar      1 UNK        -0.1150 
      5 C5        -14.4914  -10.3144   38.2897 C.ar      1 UNK         0.0850 
      6 C6        -13.3024  -10.0134   39.0213 C.ar      1 UNK         0.0850 
      7 C7        -11.7798  -13.4697   39.5850 C.2       1 UNK         0.5850 
      8 C8        -11.1097  -17.8719   37.9349 C.2       1 UNK         0.8137 
      9 C9        -13.4860  -16.9412   40.2578 C.3       1 UNK        -0.1200 
     10 C10       -13.1831  -15.4368   40.3987 C.3       1 UNK        -0.1200 
     11 C11       -12.1864  -17.7664   40.2186 C.3       1 UNK        -0.0703 
     12 C12       -10.9104  -15.8783   39.3748 C.3       1 UNK        -0.0703 
     13 C13       -12.1490  -14.9501   39.3536 C.3       1 UNK        -0.0600 
     14 C14       -10.0236  -20.9552   36.9431 C.3       1 UNK        -0.1800 
     15 C15       -16.4920   -9.6076   37.1279 C.3       1 UNK         0.1100 
     16 C16       -13.6185   -7.5997   39.1184 C.3       1 UNK         0.1100 
     17 C17       -11.2577  -20.0631   36.7595 C.3       1 UNK         0.0320 
     18 N18       -11.3354  -17.2635   39.1259 N.am      1 UNK        -0.2219 
     19 N19       -11.4334  -19.1714   37.9014 N.am      1 UNK        -0.5181 
     20 O20       -10.7303  -13.2004   40.1705 O.2       1 UNK        -0.4700 
     21 O21       -10.6086  -17.2999   36.9702 O.2       1 UNK        -0.6163 
     22 O22       -15.3326   -9.2959   37.8871 O.3       1 UNK        -0.2850 
     23 O23       -12.8587   -8.7619   39.4061 O.3       1 UNK        -0.2850 
     24 H24       -14.1841  -13.7206   38.1480 H         1 UNK         0.1150 
     25 H25       -15.6568  -11.9601   37.4462 H         1 UNK         0.1150 
     26 H26       -11.5545  -10.8158   39.9670 H         1 UNK         0.1150 
     27 H27       -14.1165  -17.2716   41.0844 H         1 UNK         0.0600 
     28 H28       -14.0584  -17.1152   39.3454 H         1 UNK         0.0600 
     29 H29       -14.1094  -14.8666   40.3226 H         1 UNK         0.0600 
     30 H30       -12.7948  -15.2466   41.4009 H         1 UNK         0.0600 
     31 H31       -11.6492  -17.6614   41.1629 H         1 UNK         0.0600 
     32 H32       -12.4294  -18.8258   40.1427 H         1 UNK         0.0600 
     33 H33       -10.1724  -15.5384   38.6446 H         1 UNK         0.0600 
     34 H34       -10.4057  -15.8270   40.3409 H         1 UNK         0.0600 
     35 H35       -12.5769  -15.0326   38.3557 H         1 UNK         0.0600 
     36 H36        -9.1139  -20.3575   37.0142 H         1 UNK         0.0600 
     37 H37       -10.0992  -21.5635   37.8448 H         1 UNK         0.0600 
     38 H38        -9.9055  -21.6318   36.0961 H         1 UNK         0.0600 
     39 H39       -17.0193   -8.6848   36.8861 H         1 UNK         0.0300 
     40 H40       -17.1802  -10.2399   37.6904 H         1 UNK         0.0300 
     41 H41       -16.2348  -10.0945   36.1862 H         1 UNK         0.0300 
     42 H42       -14.6064   -7.6409   39.5787 H         1 UNK         0.0300 
     43 H43       -13.7129   -7.4385   38.0442 H         1 UNK         0.0300 
     44 H44       -13.1064   -6.7308   39.5309 H         1 UNK         0.0300 
     45 H45       -12.1509  -20.6808   36.6623 H         1 UNK         0.0600 
     46 H46       -11.1741  -19.4973   35.8289 H         1 UNK         0.0600 
     47 H47       -11.8198  -19.5598   38.7449 H         1 UNK         0.2912 
@<TRIPOS>BOND
     1    1    2 ar   
     2    1    4 ar   
     3    1   24 1    
     4    2    5 ar   
     5    2   25 1    
     6    3    4 ar   
     7    3    6 ar   
     8    3   26 1    
     9    4    7 1    
    10    5    6 ar   
    11    5   22 1    
    12    6   23 1    
    13    7   13 1    
    14    7   20 2    
    15    8   18 am   BACKBONE|DICT|INTERRES
    16    8   19 am   BACKBONE|DICT|INTERRES
    17    8   21 2    
    18    9   10 1    
    19    9   11 1    
    20    9   27 1    
    21    9   28 1    
    22   10   13 1    
    23   10   29 1    
    24   10   30 1    
    25   11   18 1    
    26   11   31 1    
    27   11   32 1    
    28   12   13 1    
    29   12   18 1    
    30   12   33 1    
    31   12   34 1    
    32   13   35 1    
    33   14   17 1    
    34   14   36 1    
    35   14   37 1    
    36   14   38 1    
    37   15   22 1    
    38   15   39 1    
    39   15   40 1    
    40   15   41 1    
    41   16   23 1    
    42   16   42 1    
    43   16   43 1    
    44   16   44 1    
    45   17   19 1    
    46   17   45 1    
    47   17   46 1    
    48   19   47 1    
@<TRIPOS>SUBSTRUCTURE
     1 UNK         1 GROUP             0       ****    0 ROOT    
@<TRIPOS>MOLECULE
ZINC12527078_54
56   58    1
SMALL
USER_CHARGES


@<TRIPOS>ATOM
      1 C1        -14.0942  -19.0820   41.2468 C.ar      1 UNK        -0.1150 
      2 C2        -14.1432  -17.6771   41.1926 C.ar      1 UNK        -0.1150 
      3 C3        -13.5320  -19.8087   40.1803 C.ar      1 UNK        -0.1150 
      4 C4        -13.6408  -16.9996   40.0665 C.ar      1 UNK        -0.1150 
      5 C5        -15.4236  -16.0926   37.5373 C.ar      1 UNK        -0.1150 
      6 C6        -14.2954  -13.9494   37.7228 C.ar      1 UNK        -0.1150 
      7 C7        -14.2340  -15.3380   37.5011 C.ar      1 UNK        -0.1150 
      8 C8        -13.0239  -19.1394   39.0449 C.ar      1 UNK         0.2100 
      9 C9        -13.1043  -17.7273   38.9779 C.ar      1 UNK         0.0850 
     10 C10       -16.6577  -15.4862   37.8313 C.ar      1 UNK         0.0850 
     11 C11       -15.5152  -13.3118   38.0185 C.ar      1 UNK         0.0850 
     12 C12       -16.7146  -14.0797   38.0412 C.ar      1 UNK         0.0850 
     13 C13       -12.9182  -15.9863   37.1786 C.2       1 UNK         0.6150 
     14 C14       -11.4742  -22.6469   36.5300 C.3       1 UNK        -0.1200 
     15 C15       -12.7277  -22.2519   35.7363 C.3       1 UNK        -0.1200 
     16 C16       -10.7100  -21.4616   37.1433 C.3       1 UNK        -0.1200 
     17 C17       -13.7658  -21.4522   36.5411 C.3       1 UNK        -0.1200 
     18 C18       -11.4408  -20.8473   38.3460 C.3       1 UNK         0.0900 
     19 C19       -13.3221  -20.0061   36.8082 C.3       1 UNK         0.0900 
     20 C20       -18.7330  -16.0792   38.8601 C.3       1 UNK         0.1100 
     21 C21       -16.3680  -11.3583   39.1313 C.3       1 UNK         0.1100 
     22 C22       -18.5420  -13.1455   36.9579 C.3       1 UNK         0.1100 
     23 N23       -12.4535  -19.8589   37.9776 N.pl3     1 UNK        -0.6300 
     24 N24       -12.5442  -17.0927   37.8388 N.am      1 UNK        -0.3850 
     25 O25       -12.1842  -15.4857   36.3323 O.2       1 UNK        -0.5000 
     26 O26       -17.7512  -16.3235   37.8620 O.3       1 UNK        -0.2850 
     27 O27       -15.4410  -11.9516   38.2330 O.3       1 UNK        -0.2850 
     28 O28       -17.9284  -13.4618   38.1980 O.3       1 UNK        -0.2850 
     29 H29       -14.4829  -19.6038   42.1091 H         1 UNK         0.1150 
     30 H30       -14.5619  -17.1171   42.0165 H         1 UNK         0.1150 
     31 H31       -13.5061  -20.8860   40.2376 H         1 UNK         0.1150 
     32 H32       -13.6690  -15.9200   40.0530 H         1 UNK         0.1150 
     33 H33       -15.3927  -17.1563   37.3515 H         1 UNK         0.1150 
     34 H34       -13.3890  -13.3622   37.6749 H         1 UNK         0.1150 
     35 H35       -11.7444  -23.3547   37.3145 H         1 UNK         0.0600 
     36 H36       -10.8026  -23.1884   35.8627 H         1 UNK         0.0600 
     37 H37       -12.4377  -21.6872   34.8494 H         1 UNK         0.0600 
     38 H38       -13.1994  -23.1623   35.3650 H         1 UNK         0.0600 
     39 H39        -9.7492  -21.8379   37.4959 H         1 UNK         0.0600 
     40 H40       -10.4747  -20.7058   36.3930 H         1 UNK         0.0600 
     41 H41       -14.6806  -21.4133   35.9485 H         1 UNK         0.0600 
     42 H42       -14.0339  -21.9622   37.4673 H         1 UNK         0.0600 
     43 H43       -11.8749  -21.6397   38.9558 H         1 UNK         0.0600 
     44 H44       -10.7069  -20.3443   38.9777 H         1 UNK         0.0600 
     45 H45       -12.8195  -19.5944   35.9322 H         1 UNK         0.0600 
     46 H46       -14.2172  -19.3963   36.9444 H         1 UNK         0.0600 
     47 H47       -19.5044  -15.3995   38.4991 H         1 UNK         0.0300 
     48 H48       -18.3006  -15.6760   39.7776 H         1 UNK         0.0300 
     49 H49       -19.2232  -17.0187   39.1146 H         1 UNK         0.0300 
     50 H50       -16.6011  -12.0094   39.9752 H         1 UNK         0.0300 
     51 H51       -17.2909  -11.0822   38.6216 H         1 UNK         0.0300 
     52 H52       -15.9359  -10.4428   39.5353 H         1 UNK         0.0300 
     53 H53       -19.5033  -12.6642   37.1367 H         1 UNK         0.0300 
     54 H54       -18.7210  -14.0410   36.3607 H         1 UNK         0.0300 
     55 H55       -17.9244  -12.4583   36.3774 H         1 UNK         0.0300 
     56 H56       -11.7784  -17.6030   37.4247 H         1 UNK         0.3000 
@<TRIPOS>BOND
     1    1    2 ar   
     2    1    3 ar   
     3    1   29 1    
     4    2    4 ar   
     5    2   30 1    
     6    3    8 ar   
     7    3   31 1    
     8    4    9 ar   
     9    4   32 1    
    10    5    7 ar   
    11    5   10 ar   
    12    5   33 1    
    13    6    7 ar   
    14    6   11 ar   
    15    6   34 1    
    16    7   13 1    
    17    8    9 ar   
    18    8   23 1    
    19    9   24 1    
    20   10   12 ar   
    21   10   26 1    
    22   11   12 ar   
    23   11   27 1    
    24   12   28 1    
    25   13   24 am   BACKBONE|DICT|INTERRES
    26   13   25 2    
    27   14   15 1    
    28   14   16 1    
    29   14   35 1    
    30   14   36 1    
    31   15   17 1    
    32   15   37 1    
    33   15   38 1    
    34   16   18 1    
    35   16   39 1    
    36   16   40 1    
    37   17   19 1    
    38   17   41 1    
    39   17   42 1    
    40   18   23 1    
    41   18   43 1    
    42   18   44 1    
    43   19   23 1    
    44   19   45 1    
    45   19   46 1    
    46   20   26 1    
    47   20   47 1    
    48   20   48 1    
    49   20   49 1    
    50   21   27 1    
    51   21   50 1    
    52   21   51 1    
    53   21   52 1    
    54   22   28 1    
    55   22   53 1    
    56   22   54 1    
    57   22   55 1    
    58   24   56 1    
@<TRIPOS>SUBSTRUCTURE
     1 UNK         1 GROUP             0       ****    0 ROOT    
@<TRIPOS>MOLECULE
ZINC12788157_10
42   44    1
SMALL
USER_CHARGES


@<TRIPOS>ATOM
      1 C1         -7.4135  -14.0242   37.5851 C.ar      1 UNK        -0.1150 
      2 C2         -6.6583  -11.8909   36.6877 C.ar      1 UNK        -0.1150 
      3 C3         -6.9395  -14.6770   36.4302 C.ar      1 UNK        -0.1150 
      4 C4         -6.1822  -12.5425   35.5334 C.ar      1 UNK        -0.1150 
      5 C5         -8.6045  -11.2544   41.1296 C.2       1 UNK        -0.3376 
      6 C6         -7.2759  -12.6240   37.7259 C.ar      1 UNK         0.0000 
      7 C7         -6.3204  -13.9387   35.4021 C.ar      1 UNK        -0.1150 
      8 C8         -8.4368  -10.1998   40.2657 C.2       1 UNK         0.1693 
      9 C9         -7.7654  -11.9255   38.9166 C.2       1 UNK         0.3009 
     10 C10        -8.6716   -8.7738   40.6736 C.2       1 UNK         0.6150 
     11 C11       -10.7194   -5.0795   36.9027 C.2       1 UNK         0.5000 
     12 C12        -9.3843   -6.4976   40.1030 C.3       1 UNK        -0.0500 
     13 C13        -9.8257   -8.3401   38.4900 C.3       1 UNK        -0.0500 
     14 C14        -9.3303   -5.6031   38.8499 C.3       1 UNK        -0.0500 
     15 C15       -10.8637   -7.3433   37.9348 C.3       1 UNK        -0.0500 
     16 C16        -5.8132  -14.6428   34.1607 C.3       1 UNK        -0.0650 
     17 C17       -11.8284   -5.4508   35.9195 C.3       1 UNK        -0.1800 
     18 N18        -7.9211  -10.6015   39.0240 N.2       1 UNK        -0.4803 
     19 N19        -9.2373   -7.9238   39.7753 N.am      1 UNK        -0.1400 
     20 N20       -10.3309   -5.9764   37.8403 N.am      1 UNK        -0.1400 
     21 O21        -8.3930   -8.4191   41.8207 O.2       1 UNK        -0.5000 
     22 O22       -10.2209   -3.9589   36.8152 O.2       1 UNK        -0.5000 
     23 S23        -8.2044  -12.7822   40.3957 S.3       1 UNK         0.0010 
     24 H24        -7.8878  -14.6132   38.3553 H         1 UNK         0.1150 
     25 H25        -6.5440  -10.8201   36.7774 H         1 UNK         0.1150 
     26 H26        -7.0549  -15.7474   36.3374 H         1 UNK         0.1150 
     27 H27        -5.7111  -11.9637   34.7520 H         1 UNK         0.1150 
     28 H28        -8.9337  -11.2055   42.1573 H         1 UNK         0.2317 
     29 H29        -8.5993   -6.1669   40.7862 H         1 UNK         0.0600 
     30 H30       -10.3281   -6.3552   40.6316 H         1 UNK         0.0600 
     31 H31       -10.3099   -9.3134   38.5862 H         1 UNK         0.0600 
     32 H32        -9.0187   -8.4597   37.7651 H         1 UNK         0.0600 
     33 H33        -9.4694   -4.5653   39.1601 H         1 UNK         0.0600 
     34 H34        -8.3409   -5.6573   38.3931 H         1 UNK         0.0600 
     35 H35       -11.1904   -7.7188   36.9649 H         1 UNK         0.0600 
     36 H36       -11.7470   -7.3261   38.5750 H         1 UNK         0.0600 
     37 H37        -6.6236  -14.7713   33.4430 H         1 UNK         0.0600 
     38 H38        -5.0182  -14.0700   33.6822 H         1 UNK         0.0600 
     39 H39        -5.4144  -15.6267   34.4092 H         1 UNK         0.0600 
     40 H40       -12.7019   -5.8396   36.4424 H         1 UNK         0.0600 
     41 H41       -11.4747   -6.1940   35.2054 H         1 UNK         0.0600 
     42 H42       -12.1417   -4.5699   35.3585 H         1 UNK         0.0600 
@<TRIPOS>BOND
     1    1    3 ar   
     2    1    6 ar   
     3    1   24 1    
     4    2    4 ar   
     5    2    6 ar   
     6    2   25 1    
     7    3    7 ar   
     8    3   26 1    
     9    4    7 ar   
    10    4   27 1    
    11    5    8 2    
    12    5   23 1    
    13    5   28 1    
    14    6    9 1    
    15    7   16 1    
    16    8   10 1    
    17    8   18 1    
    18    9   18 2    
    19    9   23 1    
    20   10   19 am   BACKBONE|DICT|INTERRES
    21   10   21 2    
    22   11   17 1    
    23   11   20 am   BACKBONE|DICT|INTERRES
    24   11   22 2    
    25   12   14 1    
    26   12   19 1    
    27   12   29 1    
    28   12   30 1    
    29   13   15 1    
    30   13   19 1    
    31   13   31 1    
    32   13   32 1    
    33   14   20 1    
    34   14   33 1    
    35   14   34 1    
    36   15   20 1    
    37   15   35 1    
    38   15   36 1    
    39   16   37 1    
    40   16   38 1    
    41   16   39 1    
    42   17   40 1    
    43   17   41 1    
    44   17   42 1    
@<TRIPOS>SUBSTRUCTURE
     1 UNK         1 GROUP             0       ****    0 ROOT    
@<TRIPOS>MOLECULE
ZINC12791582_180
44   46    1
SMALL
USER_CHARGES


@<TRIPOS>ATOM
      1 C1         -5.8061  -12.3484   37.4903 C.2       1 UNK        -0.0738 
      2 C2         -7.3154   -5.9682   37.5353 C.ar      1 UNK        -0.1150 
      3 C3         -7.1587   -4.1921   39.1810 C.ar      1 UNK        -0.1150 
      4 C4         -5.4092  -12.7364   36.2364 C.2       1 UNK        -0.3255 
      5 C5         -4.4252  -10.5704   36.9339 C.2       1 UNK        -0.3255 
      6 C6         -6.2988   -9.8874   41.4624 C.2       1 UNK        -0.3376 
      7 C7         -5.2433  -11.0979   37.9014 C.2       1 UNK         0.0473 
      8 C8         -6.8812   -5.5207   38.7951 C.ar      1 UNK         0.0850 
      9 C9         -8.0385   -5.1323   36.6646 C.ar      1 UNK         0.0850 
     10 C10        -7.8988   -3.3272   38.3369 C.ar      1 UNK         0.0850 
     11 C11        -8.3664   -3.8086   37.0821 C.ar      1 UNK         0.0850 
     12 C12        -5.5071   -8.9314   40.8751 C.2       1 UNK         0.1693 
     13 C13        -5.5335  -10.4881   39.2019 C.2       1 UNK         0.3009 
     14 C14        -5.9112   -6.4388   40.9179 C.2       1 UNK         0.5000 
     15 C15        -8.7329   -4.9108   34.3527 C.3       1 UNK         0.1100 
     16 C16        -7.7409   -1.5237   39.9348 C.3       1 UNK         0.1100 
     17 C17       -10.2666   -2.3930   36.8377 C.3       1 UNK         0.1100 
     18 C18        -5.0850   -7.6106   41.4648 C.3       1 UNK        -0.0050 
     19 N19        -5.0775   -9.2918   39.5908 N.2       1 UNK        -0.4803 
     20 N20        -6.1406   -6.4365   39.5918 N.am      1 UNK        -0.3850 
     21 O21        -6.3037   -5.5688   41.6942 O.2       1 UNK        -0.5000 
     22 O22        -8.3925   -5.7228   35.4664 O.3       1 UNK        -0.2850 
     23 O23        -8.1698   -2.0142   38.6724 O.3       1 UNK        -0.2850 
     24 O24        -9.1199   -3.0019   36.2582 O.3       1 UNK        -0.2850 
     25 S25        -4.3284  -11.5781   35.5176 S.3       1 UNK         0.0328 
     26 S26        -6.5412  -11.2650   40.4222 S.3       1 UNK         0.0010 
     27 H27        -6.4777  -12.9178   38.1160 H         1 UNK         0.1211 
     28 H28        -7.0955   -6.9759   37.2135 H         1 UNK         0.1150 
     29 H29        -6.7886   -3.8358   40.1275 H         1 UNK         0.1150 
     30 H30        -5.6840  -13.6277   35.6900 H         1 UNK         0.2618 
     31 H31        -3.8737   -9.6426   36.9831 H         1 UNK         0.2618 
     32 H32        -6.7598   -9.8652   42.4394 H         1 UNK         0.2317 
     33 H33        -8.6985   -5.5166   33.4474 H         1 UNK         0.0300 
     34 H34        -8.0303   -4.0866   34.2200 H         1 UNK         0.0300 
     35 H35        -9.7472   -4.5206   34.4396 H         1 UNK         0.0300 
     36 H36        -8.0645   -0.4889   40.0456 H         1 UNK         0.0300 
     37 H37        -6.6536   -1.5384   40.0205 H         1 UNK         0.0300 
     38 H38        -8.1782   -2.0937   40.7559 H         1 UNK         0.0300 
     39 H39       -11.0568   -2.3346   36.0893 H         1 UNK         0.0300 
     40 H40       -10.0473   -1.3748   37.1590 H         1 UNK         0.0300 
     41 H41       -10.6580   -2.9564   37.6868 H         1 UNK         0.0300 
     42 H42        -5.1813   -7.6296   42.5508 H         1 UNK         0.0600 
     43 H43        -4.0329   -7.4155   41.2560 H         1 UNK         0.0600 
     44 H44        -5.8069   -7.2711   39.1233 H         1 UNK         0.3000 
@<TRIPOS>BOND
     1    1    4 2    
     2    1    7 1    
     3    1   27 1    
     4    2    8 ar   
     5    2    9 ar   
     6    2   28 1    
     7    3    8 ar   
     8    3   10 ar   
     9    3   29 1    
    10    4   25 1    
    11    4   30 1    
    12    5    7 2    
    13    5   25 1    
    14    5   31 1    
    15    6   12 2    
    16    6   26 1    
    17    6   32 1    
    18    7   13 1    
    19    8   20 1    
    20    9   11 ar   
    21    9   22 1    
    22   10   11 ar   
    23   10   23 1    
    24   11   24 1    
    25   12   18 1    
    26   12   19 1    
    27   13   19 2    
    28   13   26 1    
    29   14   18 1    
    30   14   20 am   BACKBONE|DICT|INTERRES
    31   14   21 2    
    32   15   22 1    
    33   15   33 1    
    34   15   34 1    
    35   15   35 1    
    36   16   23 1    
    37   16   36 1    
    38   16   37 1    
    39   16   38 1    
    40   17   24 1    
    41   17   39 1    
    42   17   40 1    
    43   17   41 1    
    44   18   42 1    
    45   18   43 1    
    46   20   44 1    
@<TRIPOS>SUBSTRUCTURE
     1 UNK         1 GROUP             0       ****    0 ROOT    
@<TRIPOS>MOLECULE
ZINC12807819_198
46   48    1
SMALL
USER_CHARGES


@<TRIPOS>ATOM
      1 C1         -5.3310  -12.2396   35.0034 C.ar      1 UNK        -0.1150 
      2 C2         -4.8236  -10.9338   35.1476 C.ar      1 UNK        -0.1150 
      3 C3         -5.8612  -12.9155   36.1194 C.ar      1 UNK        -0.1150 
      4 C4         -4.8485  -10.3040   36.4079 C.ar      1 UNK        -0.1150 
      5 C5         -5.8850  -12.2855   37.3799 C.ar      1 UNK        -0.1150 
      6 C6         -7.9864   -6.0341   37.8666 C.ar      1 UNK        -0.1150 
      7 C7         -7.9202   -4.4369   39.7101 C.ar      1 UNK        -0.1150 
      8 C8         -9.4211   -4.0730   37.8307 C.ar      1 UNK        -0.1150 
      9 C9         -5.3800  -10.9750   37.5313 C.ar      1 UNK         0.0000 
     10 C10        -7.4637   -5.6363   39.1145 C.ar      1 UNK         0.0850 
     11 C11        -8.9750   -5.2578   37.2149 C.ar      1 UNK         0.0850 
     12 C12        -8.9088   -3.6484   39.0718 C.ar      1 UNK         0.0850 
     13 C13        -5.2798   -8.9286   40.4976 C.2       1 UNK         0.1450 
     14 C14        -5.8125  -10.1077   40.9497 C.2       1 UNK        -0.0820 
     15 C15        -5.4071  -10.3119   38.8320 C.2       1 UNK         0.5540 
     16 C16        -6.0717   -6.5896   40.9704 C.2       1 UNK         0.5000 
     17 C17        -6.2933  -10.5601   42.2865 C.3       1 UNK        -0.0650 
     18 C18        -9.1414   -6.7938   35.3750 C.3       1 UNK         0.1100 
     19 C19        -8.9586   -2.0469   40.8606 C.3       1 UNK         0.1100 
     20 C20        -4.9991   -7.6502   41.2429 C.3       1 UNK        -0.0050 
     21 N21        -5.0301   -9.0670   39.1357 N.2       1 UNK        -0.5900 
     22 N22        -6.4656   -6.4683   39.6901 N.am      1 UNK        -0.3850 
     23 O23        -6.4991   -5.9093   41.9020 O.2       1 UNK        -0.5000 
     24 O24        -5.8973  -10.9903   39.9071 O.3       1 UNK        -0.2570 
     25 O25        -9.5416   -5.5835   36.0008 O.3       1 UNK        -0.2850 
     26 O26        -9.4138   -2.4722   39.5840 O.3       1 UNK        -0.2850 
     27 H27        -5.3120  -12.7233   34.0372 H         1 UNK         0.1150 
     28 H28        -4.4140  -10.4152   34.2926 H         1 UNK         0.1150 
     29 H29        -6.2501  -13.9177   36.0093 H         1 UNK         0.1150 
     30 H30        -4.4564   -9.3026   36.5160 H         1 UNK         0.1150 
     31 H31        -6.2938  -12.8107   38.2313 H         1 UNK         0.1150 
     32 H32        -7.6209   -6.9475   37.4232 H         1 UNK         0.1150 
     33 H33        -7.5024   -4.1208   40.6520 H         1 UNK         0.1150 
     34 H34       -10.1749   -3.4748   37.3402 H         1 UNK         0.1150 
     35 H35        -6.9485   -9.8125   42.7349 H         1 UNK         0.0600 
     36 H36        -6.8525  -11.4925   42.2073 H         1 UNK         0.0600 
     37 H37        -5.4549  -10.7253   42.9637 H         1 UNK         0.0600 
     38 H38        -9.6903   -6.9138   34.4410 H         1 UNK         0.0300 
     39 H39        -9.3637   -7.6593   36.0008 H         1 UNK         0.0300 
     40 H40        -8.0778   -6.7849   35.1334 H         1 UNK         0.0300 
     41 H41        -9.4721   -1.1261   41.1371 H         1 UNK         0.0300 
     42 H42        -7.8882   -1.8372   40.8524 H         1 UNK         0.0300 
     43 H43        -9.1764   -2.7891   41.6302 H         1 UNK         0.0300 
     44 H44        -4.9520   -7.8359   42.3164 H         1 UNK         0.0600 
     45 H45        -4.0288   -7.2436   40.9577 H         1 UNK         0.0600 
     46 H46        -6.0475   -7.1625   39.0800 H         1 UNK         0.3000 
@<TRIPOS>BOND
     1    1    2 ar   
     2    1    3 ar   
     3    1   27 1    
     4    2    4 ar   
     5    2   28 1    
     6    3    5 ar   
     7    3   29 1    
     8    4    9 ar   
     9    4   30 1    
    10    5    9 ar   
    11    5   31 1    
    12    6   10 ar   
    13    6   11 ar   
    14    6   32 1    
    15    7   10 ar   
    16    7   12 ar   
    17    7   33 1    
    18    8   11 ar   
    19    8   12 ar   
    20    8   34 1    
    21    9   15 1    
    22   10   22 1    
    23   11   25 1    
    24   12   26 1    
    25   13   14 2    
    26   13   20 1    
    27   13   21 1    
    28   14   17 1    
    29   14   24 1    
    30   15   21 2    
    31   15   24 1    
    32   16   20 1    
    33   16   22 am   BACKBONE|DICT|INTERRES
    34   16   23 2    
    35   17   35 1    
    36   17   36 1    
    37   17   37 1    
    38   18   25 1    
    39   18   38 1    
    40   18   39 1    
    41   18   40 1    
    42   19   26 1    
    43   19   41 1    
    44   19   42 1    
    45   19   43 1    
    46   20   44 1    
    47   20   45 1    
    48   22   46 1    
@<TRIPOS>SUBSTRUCTURE
     1 UNK         1 GROUP             0       ****    0 ROOT    
@<TRIPOS>MOLECULE
ZINC12820939_265
46   48    1
SMALL
USER_CHARGES


@<TRIPOS>ATOM
      1 C1         -4.8400  -12.6439   35.1219 C.ar      1 UNK        -0.1150 
      2 C2         -4.1992  -11.4082   35.3348 C.ar      1 UNK        -0.1150 
      3 C3         -5.6725  -13.1859   36.1200 C.ar      1 UNK        -0.1150 
      4 C4         -4.3925  -10.7143   36.5461 C.ar      1 UNK        -0.1150 
      5 C5         -5.8647  -12.4919   37.3313 C.ar      1 UNK        -0.1150 
      6 C6         -7.3494   -5.9052   37.3965 C.ar      1 UNK        -0.1150 
      7 C7         -8.1257   -5.0219   36.6299 C.ar      1 UNK        -0.1150 
      8 C8         -7.5135   -4.3794   39.2794 C.ar      1 UNK        -0.1150 
      9 C9         -5.2270  -11.2508   37.5510 C.ar      1 UNK         0.0000 
     10 C10        -7.0447   -5.5964   38.7331 C.ar      1 UNK         0.0850 
     11 C11        -8.6149   -3.8146   37.1658 C.ar      1 UNK         0.0850 
     12 C12        -8.3043   -3.4767   38.5186 C.ar      1 UNK         0.0850 
     13 C13        -5.4374   -9.0959   40.4328 C.2       1 UNK         0.1450 
     14 C14        -6.1747  -10.1892   40.8056 C.2       1 UNK        -0.0820 
     15 C15        -5.4224  -10.5253   38.8031 C.2       1 UNK         0.5540 
     16 C16        -6.0714   -6.6897   40.7704 C.2       1 UNK         0.5000 
     17 C17        -6.9328  -10.5305   42.0433 C.3       1 UNK        -0.0650 
     18 C18       -10.0210   -1.8846   36.6896 C.3       1 UNK         0.1100 
     19 C19        -8.5216   -2.0001   40.4232 C.3       1 UNK         0.1100 
     20 C20        -5.1418   -7.8317   41.1931 C.3       1 UNK        -0.0050 
     21 N21        -4.9664   -9.3163   39.1428 N.2       1 UNK        -0.5900 
     22 N22        -6.2425   -6.5286   39.4456 N.am      1 UNK        -0.3850 
     23 O23        -6.5918   -5.9865   41.6354 O.2       1 UNK        -0.5000 
     24 O24        -6.1730  -11.0999   39.7843 O.3       1 UNK        -0.2570 
     25 O25        -9.3631   -3.0701   36.2731 O.3       1 UNK        -0.2850 
     26 O26        -8.7616   -2.2868   39.0522 O.3       1 UNK        -0.2850 
     27 H27        -4.6924  -13.1765   34.1930 H         1 UNK         0.1150 
     28 H28        -3.5588  -10.9925   34.5702 H         1 UNK         0.1150 
     29 H29        -6.1645  -14.1341   35.9571 H         1 UNK         0.1150 
     30 H30        -3.8973   -9.7675   36.7079 H         1 UNK         0.1150 
     31 H31        -6.5051  -12.9144   38.0923 H         1 UNK         0.1150 
     32 H32        -6.9969   -6.8228   36.9477 H         1 UNK         0.1150 
     33 H33        -8.3577   -5.2733   35.6056 H         1 UNK         0.1150 
     34 H34        -7.2471   -4.1361   40.2936 H         1 UNK         0.1150 
     35 H35        -7.6723   -9.7609   42.2671 H         1 UNK         0.0600 
     36 H36        -7.4576  -11.4798   41.9337 H         1 UNK         0.0600 
     37 H37        -6.2614  -10.6122   42.8982 H         1 UNK         0.0600 
     38 H38       -10.6164   -1.5008   35.8616 H         1 UNK         0.0300 
     39 H39        -9.3075   -1.1064   36.9620 H         1 UNK         0.0300 
     40 H40       -10.7035   -2.0723   37.5194 H         1 UNK         0.0300 
     41 H41        -9.0017   -1.0561   40.6806 H         1 UNK         0.0300 
     42 H42        -7.4558   -1.8912   40.6280 H         1 UNK         0.0300 
     43 H43        -8.9416   -2.7688   41.0738 H         1 UNK         0.0300 
     44 H44        -5.2502   -7.9968   42.2655 H         1 UNK         0.0600 
     45 H45        -4.1104   -7.5178   41.0328 H         1 UNK         0.0600 
     46 H46        -5.7932   -7.2505   38.8936 H         1 UNK         0.3000 
@<TRIPOS>BOND
     1    1    2 ar   
     2    1    3 ar   
     3    1   27 1    
     4    2    4 ar   
     5    2   28 1    
     6    3    5 ar   
     7    3   29 1    
     8    4    9 ar   
     9    4   30 1    
    10    5    9 ar   
    11    5   31 1    
    12    6    7 ar   
    13    6   10 ar   
    14    6   32 1    
    15    7   11 ar   
    16    7   33 1    
    17    8   10 ar   
    18    8   12 ar   
    19    8   34 1    
    20    9   15 1    
    21   10   22 1    
    22   11   12 ar   
    23   11   25 1    
    24   12   26 1    
    25   13   14 2    
    26   13   20 1    
    27   13   21 1    
    28   14   17 1    
    29   14   24 1    
    30   15   21 2    
    31   15   24 1    
    32   16   20 1    
    33   16   22 am   BACKBONE|DICT|INTERRES
    34   16   23 2    
    35   17   35 1    
    36   17   36 1    
    37   17   37 1    
    38   18   25 1    
    39   18   38 1    
    40   18   39 1    
    41   18   40 1    
    42   19   26 1    
    43   19   41 1    
    44   19   42 1    
    45   19   43 1    
    46   20   44 1    
    47   20   45 1    
    48   22   46 1    
@<TRIPOS>SUBSTRUCTURE
     1 UNK         1 GROUP             0       ****    0 ROOT    
@<TRIPOS>MOLECULE
ZINC12856511_130
53   56    1
SMALL
USER_CHARGES


@<TRIPOS>ATOM
      1 C1         -4.3423  -11.8260   33.6847 C.ar      1 UNK         0.0055 
      2 C2         -3.4511  -10.8700   33.1607 C.ar      1 UNK        -0.3011 
      3 C3         -4.8701  -11.6620   34.9808 C.ar      1 UNK        -0.4461 
      4 C4         -3.0879   -9.7498   33.9326 C.ar      1 UNK        -0.1407 
      5 C5         -8.3700   -5.8753   38.8171 C.ar      1 UNK        -0.1150 
      6 C6         -6.6402   -4.2474   39.3634 C.ar      1 UNK        -0.1150 
      7 C7         -7.2421   -5.5031   39.5796 C.ar      1 UNK        -0.1150 
      8 C8         -4.5236  -10.5512   35.7781 C.ar      1 UNK         0.6314 
      9 C9         -8.8659   -5.0238   37.8014 C.ar      1 UNK         0.0850 
     10 C10        -7.1245   -3.3751   38.3592 C.ar      1 UNK         0.0850 
     11 C11        -8.2298   -3.7830   37.5746 C.ar      1 UNK         0.0850 
     12 C12        -3.6204   -9.5968   35.2261 C.ar      1 UNK        -0.1027 
     13 C13        -4.4302   -9.1401   37.5102 C.2       1 UNK         0.2008 
     14 C14        -6.7253   -6.3909   40.6760 C.2       1 UNK         0.6150 
     15 C15        -4.6068   -8.9898   41.3868 C.3       1 UNK        -0.1200 
     16 C16        -4.2216   -9.5244   39.9961 C.3       1 UNK        -0.1200 
     17 C17        -6.1079   -8.6545   41.4460 C.3       1 UNK        -0.0500 
     18 C18        -6.2192   -8.2428   39.0446 C.3       1 UNK        -0.0500 
     19 C19        -4.7278   -8.5980   38.8721 C.3       1 UNK         0.0550 
     20 C20       -10.6017   -6.5774   37.1995 C.3       1 UNK         0.1100 
     21 C21        -5.5146   -1.6770   38.9198 C.3       1 UNK         0.1100 
     22 C22        -7.9360   -2.9284   35.4214 C.3       1 UNK         0.1100 
     23 N23        -4.9754  -10.2800   37.0653 N.2       1 UNK        -0.5991 
     24 N24        -6.4398   -7.6866   40.3904 N.am      1 UNK        -0.1400 
     25 O25        -6.5812   -5.9106   41.7994 O.2       1 UNK        -0.5000 
     26 O26        -9.9440   -5.3358   36.9988 O.3       1 UNK        -0.2850 
     27 O27        -6.5820   -2.1323   38.1023 O.3       1 UNK        -0.2850 
     28 O28        -8.7277   -2.9597   36.5969 O.3       1 UNK        -0.2850 
     29 S29        -3.3394   -8.3090   36.3927 S.3       1 UNK        -0.0839 
     30 H30        -4.6222  -12.6865   33.0929 H         1 UNK         0.1296 
     31 H31        -3.0466  -10.9979   32.1651 H         1 UNK         0.1749 
     32 H32        -5.5527  -12.3928   35.3850 H         1 UNK         0.2114 
     33 H33        -2.4058   -9.0094   33.5417 H         1 UNK         0.2050 
     34 H34        -8.8384   -6.8245   39.0270 H         1 UNK         0.1150 
     35 H35        -5.8051   -3.9739   39.9907 H         1 UNK         0.1150 
     36 H36        -4.3550   -9.7244   42.1526 H         1 UNK         0.0600 
     37 H37        -4.0243   -8.0955   41.6143 H         1 UNK         0.0600 
     38 H38        -3.1409   -9.6519   39.9250 H         1 UNK         0.0600 
     39 H39        -4.6565  -10.5166   39.8653 H         1 UNK         0.0600 
     40 H40        -6.7010   -9.5587   41.3025 H         1 UNK         0.0600 
     41 H41        -6.3672   -8.2882   42.4413 H         1 UNK         0.0600 
     42 H42        -6.4994   -7.5665   38.2392 H         1 UNK         0.0600 
     43 H43        -6.8374   -9.1327   38.9176 H         1 UNK         0.0600 
     44 H44        -4.1689   -7.6646   38.9575 H         1 UNK         0.0600 
     45 H45       -11.4251   -6.6659   36.4909 H         1 UNK         0.0300 
     46 H46       -11.0228   -6.6477   38.2032 H         1 UNK         0.0300 
     47 H47        -9.9278   -7.4178   37.0282 H         1 UNK         0.0300 
     48 H48        -5.2325   -0.6698   38.6132 H         1 UNK         0.0300 
     49 H49        -4.6342   -2.3122   38.8146 H         1 UNK         0.0300 
     50 H50        -5.8060   -1.6306   39.9699 H         1 UNK         0.0300 
     51 H51        -8.4191   -2.2965   34.6764 H         1 UNK         0.0300 
     52 H52        -7.8305   -3.9272   34.9954 H         1 UNK         0.0300 
     53 H53        -6.9416   -2.5220   35.6069 H         1 UNK         0.0300 
@<TRIPOS>BOND
     1    1    2 ar   
     2    1    3 ar   
     3    1   30 1    
     4    2    4 ar   
     5    2   31 1    
     6    3    8 ar   
     7    3   32 1    
     8    4   12 ar   
     9    4   33 1    
    10    5    7 ar   
    11    5    9 ar   
    12    5   34 1    
    13    6    7 ar   
    14    6   10 ar   
    15    6   35 1    
    16    7   14 1    
    17    8   12 ar   
    18    8   23 1    
    19    9   11 ar   
    20    9   26 1    
    21   10   11 ar   
    22   10   27 1    
    23   11   28 1    
    24   12   29 1    
    25   13   19 1    
    26   13   23 2    
    27   13   29 1    
    28   14   24 am   BACKBONE|DICT|INTERRES
    29   14   25 2    
    30   15   16 1    
    31   15   17 1    
    32   15   36 1    
    33   15   37 1    
    34   16   19 1    
    35   16   38 1    
    36   16   39 1    
    37   17   24 1    
    38   17   40 1    
    39   17   41 1    
    40   18   19 1    
    41   18   24 1    
    42   18   42 1    
    43   18   43 1    
    44   19   44 1    
    45   20   26 1    
    46   20   45 1    
    47   20   46 1    
    48   20   47 1    
    49   21   27 1    
    50   21   48 1    
    51   21   49 1    
    52   21   50 1    
    53   22   28 1    
    54   22   51 1    
    55   22   52 1    
    56   22   53 1    
@<TRIPOS>SUBSTRUCTURE
     1 UNK         1 GROUP             0       ****    0 ROOT    
@<TRIPOS>MOLECULE
ZINC12856521_159
53   56    1
SMALL
USER_CHARGES


@<TRIPOS>ATOM
      1 C1         -4.9592  -10.8492   33.1439 C.ar      1 UNK         0.0055 
      2 C2         -3.5570  -10.7871   33.2561 C.ar      1 UNK        -0.3011 
      3 C3         -5.7699  -10.5254   34.2499 C.ar      1 UNK        -0.4461 
      4 C4         -2.9653  -10.4009   34.4741 C.ar      1 UNK        -0.1407 
      5 C5         -7.2321   -4.1438   39.6920 C.ar      1 UNK        -0.1150 
      6 C6         -7.9046   -6.2661   38.7058 C.ar      1 UNK        -0.1150 
      7 C7         -7.2262   -5.5531   39.7178 C.ar      1 UNK        -0.1150 
      8 C8         -5.2058  -10.1361   35.4827 C.ar      1 UNK         0.6314 
      9 C9         -7.8669   -3.4407   38.6403 C.ar      1 UNK         0.0850 
     10 C10        -8.5283   -5.5866   37.6328 C.ar      1 UNK         0.0850 
     11 C11        -8.4984   -4.1721   37.6097 C.ar      1 UNK         0.0850 
     12 C12        -3.7846  -10.0799   35.5721 C.ar      1 UNK        -0.1027 
     13 C13        -5.0344   -9.4818   37.6141 C.2       1 UNK         0.2008 
     14 C14        -6.5745   -6.2639   40.8721 C.2       1 UNK         0.6150 
     15 C15        -5.5013   -9.5593   41.4715 C.3       1 UNK        -0.1200 
     16 C16        -5.0512  -10.0416   40.0797 C.3       1 UNK        -0.1200 
     17 C17        -5.1179   -8.0848   41.7036 C.3       1 UNK        -0.0500 
     18 C18        -5.1130   -7.6189   39.3163 C.3       1 UNK        -0.0500 
     19 C19        -5.5066   -9.0703   38.9727 C.3       1 UNK         0.0550 
     20 C20        -7.3493   -1.3047   39.6152 C.3       1 UNK         0.1100 
     21 C21        -9.0817   -7.6449   36.5178 C.3       1 UNK         0.1100 
     22 C22        -8.3770   -3.4785   35.3839 C.3       1 UNK         0.1100 
     23 N23        -5.8976   -9.7939   36.6399 N.2       1 UNK        -0.5991 
     24 N24        -5.6815   -7.2582   40.6250 N.am      1 UNK        -0.1400 
     25 O25        -6.8639   -5.9033   42.0121 O.2       1 UNK        -0.5000 
     26 O26        -7.8990   -2.0642   38.5494 O.3       1 UNK        -0.2850 
     27 O27        -9.1831   -6.2311   36.6032 O.3       1 UNK        -0.2850 
     28 O28        -9.1137   -3.4840   36.5951 O.3       1 UNK        -0.2850 
     29 S29        -3.3171   -9.5719   37.1911 S.3       1 UNK        -0.0839 
     30 H30        -5.4147  -11.1453   32.2092 H         1 UNK         0.1296 
     31 H31        -2.9361  -11.0366   32.4057 H         1 UNK         0.1749 
     32 H32        -6.8443  -10.5729   34.1665 H         1 UNK         0.2114 
     33 H33        -1.8909  -10.3497   34.5723 H         1 UNK         0.2050 
     34 H34        -6.7414   -3.6216   40.4997 H         1 UNK         0.1150 
     35 H35        -7.9419   -7.3409   38.7727 H         1 UNK         0.1150 
     36 H36        -6.5827   -9.6704   41.5653 H         1 UNK         0.0600 
     37 H37        -5.0607  -10.1891   42.2454 H         1 UNK         0.0600 
     38 H38        -3.9637  -10.1248   40.0691 H         1 UNK         0.0600 
     39 H39        -5.4380  -11.0426   39.8843 H         1 UNK         0.0600 
     40 H40        -5.4600   -7.7766   42.6934 H         1 UNK         0.0600 
     41 H41        -4.0331   -7.9706   41.7183 H         1 UNK         0.0600 
     42 H42        -4.0270   -7.5308   39.3695 H         1 UNK         0.0600 
     43 H43        -5.4066   -6.9441   38.5135 H         1 UNK         0.0600 
     44 H44        -6.5958   -9.1196   38.9478 H         1 UNK         0.0600 
     45 H45        -7.4955   -0.2439   39.4125 H         1 UNK         0.0300 
     46 H46        -6.2769   -1.4760   39.7151 H         1 UNK         0.0300 
     47 H47        -7.8426   -1.5295   40.5620 H         1 UNK         0.0300 
     48 H48        -9.5752   -7.9867   35.6081 H         1 UNK         0.0300 
     49 H49        -9.5716   -8.1326   37.3612 H         1 UNK         0.0300 
     50 H50        -8.0410   -7.9669   36.4673 H         1 UNK         0.0300 
     51 H51        -8.9037   -2.8785   34.6424 H         1 UNK         0.0300 
     52 H52        -8.2549   -4.4812   34.9740 H         1 UNK         0.0300 
     53 H53        -7.3895   -3.0388   35.5303 H         1 UNK         0.0300 
@<TRIPOS>BOND
     1    1    2 ar   
     2    1    3 ar   
     3    1   30 1    
     4    2    4 ar   
     5    2   31 1    
     6    3    8 ar   
     7    3   32 1    
     8    4   12 ar   
     9    4   33 1    
    10    5    7 ar   
    11    5    9 ar   
    12    5   34 1    
    13    6    7 ar   
    14    6   10 ar   
    15    6   35 1    
    16    7   14 1    
    17    8   12 ar   
    18    8   23 1    
    19    9   11 ar   
    20    9   26 1    
    21   10   11 ar   
    22   10   27 1    
    23   11   28 1    
    24   12   29 1    
    25   13   19 1    
    26   13   23 2    
    27   13   29 1    
    28   14   24 am   BACKBONE|DICT|INTERRES
    29   14   25 2    
    30   15   16 1    
    31   15   17 1    
    32   15   36 1    
    33   15   37 1    
    34   16   19 1    
    35   16   38 1    
    36   16   39 1    
    37   17   24 1    
    38   17   40 1    
    39   17   41 1    
    40   18   19 1    
    41   18   24 1    
    42   18   42 1    
    43   18   43 1    
    44   19   44 1    
    45   20   26 1    
    46   20   45 1    
    47   20   46 1    
    48   20   47 1    
    49   21   27 1    
    50   21   48 1    
    51   21   49 1    
    52   21   50 1    
    53   22   28 1    
    54   22   51 1    
    55   22   52 1    
    56   22   53 1    
@<TRIPOS>SUBSTRUCTURE
     1 UNK         1 GROUP             0       ****    0 ROOT    
@<TRIPOS>MOLECULE
ZINC12879772_36
49   51    1
SMALL
USER_CHARGES


@<TRIPOS>ATOM
      1 C1         -3.8099   -6.8763   37.1778 C.ar      1 UNK        -0.1150 
      2 C2         -4.2925   -8.0077   36.4920 C.ar      1 UNK        -0.1150 
      3 C3         -4.2374   -6.6120   38.4937 C.ar      1 UNK        -0.1150 
      4 C4         -5.1984   -8.8805   37.1244 C.ar      1 UNK        -0.1150 
      5 C5         -7.7303   -5.8864   38.6506 C.ar      1 UNK        -0.1150 
      6 C6         -6.7422   -3.8738   39.6016 C.ar      1 UNK        -0.1150 
      7 C7         -6.9303   -5.2701   39.6364 C.ar      1 UNK        -0.1150 
      8 C8         -5.1549   -7.4787   39.1326 C.ar      1 UNK        -0.0383 
      9 C9         -8.2835   -5.1339   37.5886 C.ar      1 UNK         0.0850 
     10 C10        -7.2957   -3.0971   38.5557 C.ar      1 UNK         0.0850 
     11 C11        -8.0476   -3.7391   37.5460 C.ar      1 UNK         0.0850 
     12 C12        -5.6217   -8.6206   38.4410 C.ar      1 UNK         0.1525 
     13 C13        -6.3286   -6.0749   40.7580 C.2       1 UNK         0.6150 
     14 C14        -4.7471   -9.5022   41.1649 C.3       1 UNK        -0.1200 
     15 C15        -5.2521   -8.0981   41.5682 C.3       1 UNK        -0.0500 
     16 C16        -5.8244  -10.4507   40.5942 C.3       1 UNK         0.1075 
     17 C17        -5.2037  -11.7807   40.1514 C.3       1 UNK        -0.1800 
     18 C18        -9.2535   -7.0951   36.5871 C.3       1 UNK         0.1100 
     19 C19        -6.4617   -1.0464   39.4942 C.3       1 UNK         0.1100 
     20 C20        -7.8924   -3.1216   35.2991 C.3       1 UNK         0.1100 
     21 N21        -5.6145   -7.1935   40.4573 N.am      1 UNK        -0.0317 
     22 O22        -6.4541   -5.6592   41.9113 O.2       1 UNK        -0.5000 
     23 O23        -9.0547   -5.6886   36.5872 O.3       1 UNK        -0.2850 
     24 O24        -7.1312   -1.7315   38.4470 O.3       1 UNK        -0.2850 
     25 O25        -8.5732   -2.9758   36.5344 O.3       1 UNK        -0.2850 
     26 S26        -6.7573   -9.7183   39.2179 S.3       1 UNK        -0.3200 
     27 H27        -3.1140   -6.2073   36.6914 H         1 UNK         0.1150 
     28 H28        -3.9678   -8.2071   35.4809 H         1 UNK         0.1150 
     29 H29        -3.8642   -5.7366   39.0059 H         1 UNK         0.1150 
     30 H30        -5.5680   -9.7499   36.6007 H         1 UNK         0.1150 
     31 H31        -7.9041   -6.9486   38.7268 H         1 UNK         0.1150 
     32 H32        -6.1582   -3.4214   40.3890 H         1 UNK         0.1150 
     33 H33        -3.9043   -9.4183   40.4773 H         1 UNK         0.0600 
     34 H34        -4.3296   -9.9729   42.0560 H         1 UNK         0.0600 
     35 H35        -6.1052   -8.2185   42.2394 H         1 UNK         0.0600 
     36 H36        -4.4768   -7.6011   42.1531 H         1 UNK         0.0600 
     37 H37        -6.5520  -10.6619   41.3793 H         1 UNK         0.0600 
     38 H38        -4.4844  -11.6342   39.3451 H         1 UNK         0.0600 
     39 H39        -5.9700  -12.4678   39.7911 H         1 UNK         0.0600 
     40 H40        -4.6862  -12.2695   40.9772 H         1 UNK         0.0600 
     41 H41        -9.8501   -7.3736   35.7187 H         1 UNK         0.0300 
     42 H42        -9.7956   -7.4209   37.4758 H         1 UNK         0.0300 
     43 H43        -8.3062   -7.6328   36.5226 H         1 UNK         0.0300 
     44 H44        -6.4593    0.0219   39.2789 H         1 UNK         0.0300 
     45 H45        -5.4229   -1.3672   39.5810 H         1 UNK         0.0300 
     46 H46        -6.9670   -1.1883   40.4505 H         1 UNK         0.0300 
     47 H47        -8.3009   -2.4175   34.5746 H         1 UNK         0.0300 
     48 H48        -8.0031   -4.1244   34.8862 H         1 UNK         0.0300 
     49 H49        -6.8288   -2.9059   35.4104 H         1 UNK         0.0300 
@<TRIPOS>BOND
     1    1    2 ar   
     2    1    3 ar   
     3    1   27 1    
     4    2    4 ar   
     5    2   28 1    
     6    3    8 ar   
     7    3   29 1    
     8    4   12 ar   
     9    4   30 1    
    10    5    7 ar   
    11    5    9 ar   
    12    5   31 1    
    13    6    7 ar   
    14    6   10 ar   
    15    6   32 1    
    16    7   13 1    
    17    8   12 ar   
    18    8   21 1    
    19    9   11 ar   
    20    9   23 1    
    21   10   11 ar   
    22   10   24 1    
    23   11   25 1    
    24   12   26 1    
    25   13   21 am   BACKBONE|DICT|INTERRES
    26   13   22 2    
    27   14   15 1    
    28   14   16 1    
    29   14   33 1    
    30   14   34 1    
    31   15   21 1    
    32   15   35 1    
    33   15   36 1    
    34   16   17 1    
    35   16   26 1    
    36   16   37 1    
    37   17   38 1    
    38   17   39 1    
    39   17   40 1    
    40   18   23 1    
    41   18   41 1    
    42   18   42 1    
    43   18   43 1    
    44   19   24 1    
    45   19   44 1    
    46   19   45 1    
    47   19   46 1    
    48   20   25 1    
    49   20   47 1    
    50   20   48 1    
    51   20   49 1    
@<TRIPOS>SUBSTRUCTURE
     1 UNK         1 GROUP             0       ****    0 ROOT    
@<TRIPOS>MOLECULE
ZINC12882439_144
49   52    1
SMALL
USER_CHARGES


@<TRIPOS>ATOM
      1 C1        -14.5472  -28.1772   36.4288 C.ar      1 UNK         0.0055 
      2 C2        -13.2482  -27.6793   36.2115 C.ar      1 UNK        -0.3011 
      3 C3        -20.2405  -18.6758   37.4100 C.ar      1 UNK        -0.1150 
      4 C4        -15.5698  -27.3117   36.8650 C.ar      1 UNK        -0.4461 
      5 C5        -21.0130  -17.5699   37.8018 C.ar      1 UNK        -0.1150 
      6 C6        -12.9718  -26.3164   36.4313 C.ar      1 UNK        -0.1407 
      7 C7        -18.2237  -17.3966   37.8578 C.ar      1 UNK        -0.1150 
      8 C8        -18.8351  -18.6017   37.4590 C.ar      1 UNK        -0.1150 
      9 C9        -15.3233  -25.9418   37.0938 C.ar      1 UNK         0.6314 
     10 C10       -20.4151  -16.3688   38.2336 C.ar      1 UNK         0.0850 
     11 C11       -18.9893  -16.2697   38.2596 C.ar      1 UNK         0.0850 
     12 C12       -14.0006  -25.4615   36.8686 C.ar      1 UNK        -0.1027 
     13 C13       -15.6520  -23.7975   37.6373 C.2       1 UNK         0.2008 
     14 C14       -17.9833  -19.7618   37.0260 C.2       1 UNK         0.6150 
     15 C15       -17.7957  -21.5294   39.9560 C.3       1 UNK        -0.1200 
     16 C16       -16.9334  -22.7330   39.5325 C.3       1 UNK        -0.1200 
     17 C17       -18.8615  -21.2041   38.8917 C.3       1 UNK        -0.0500 
     18 C18       -17.5195  -22.1836   37.1117 C.3       1 UNK        -0.0500 
     19 C19       -16.3989  -22.5833   38.0921 C.3       1 UNK         0.0550 
     20 C20       -20.8842  -14.1160   39.0318 C.3       1 UNK         0.1100 
     21 C21       -16.9720  -14.9856   38.6196 C.3       1 UNK         0.1100 
     22 N22       -16.2451  -24.9937   37.5240 N.2       1 UNK        -0.5991 
     23 N23       -18.1920  -20.9723   37.6016 N.am      1 UNK        -0.1400 
     24 O24       -17.1259  -19.5742   36.1635 O.2       1 UNK        -0.5000 
     25 O25       -21.3240  -15.3891   38.5882 O.3       1 UNK        -0.2850 
     26 O26       -18.3871  -15.0976   38.6727 O.3       1 UNK        -0.2850 
     27 S27       -13.9334  -23.7379   37.2208 S.3       1 UNK        -0.0839 
     28 H28       -14.7606  -29.2237   36.2611 H         1 UNK         0.1296 
     29 H29       -12.4640  -28.3450   35.8756 H         1 UNK         0.1749 
     30 H30       -20.7299  -19.5788   37.0737 H         1 UNK         0.1150 
     31 H31       -16.5664  -27.6888   37.0327 H         1 UNK         0.2114 
     32 H32       -22.0905  -17.6373   37.7691 H         1 UNK         0.1150 
     33 H33       -11.9796  -25.9223   36.2680 H         1 UNK         0.2050 
     34 H34       -17.1449  -17.3704   37.8493 H         1 UNK         0.1150 
     35 H35       -18.2723  -21.7333   40.9157 H         1 UNK         0.0600 
     36 H36       -17.1571  -20.6582   40.1098 H         1 UNK         0.0600 
     37 H37       -16.1066  -22.8735   40.2298 H         1 UNK         0.0600 
     38 H38       -17.5413  -23.6370   39.5942 H         1 UNK         0.0600 
     39 H39       -19.5624  -22.0341   38.7909 H         1 UNK         0.0600 
     40 H40       -19.4518  -20.3579   39.2388 H         1 UNK         0.0600 
     41 H41       -17.1098  -22.0507   36.1085 H         1 UNK         0.0600 
     42 H42       -18.2486  -22.9903   37.0258 H         1 UNK         0.0600 
     43 H43       -15.6779  -21.7641   38.1005 H         1 UNK         0.0600 
     44 H44       -20.2994  -14.1917   39.9489 H         1 UNK         0.0300 
     45 H45       -21.7538  -13.4979   39.2540 H         1 UNK         0.0300 
     46 H46       -20.3090  -13.5995   38.2627 H         1 UNK         0.0300 
     47 H47       -16.6793  -13.9913   38.9561 H         1 UNK         0.0300 
     48 H48       -16.6007  -15.1095   37.6016 H         1 UNK         0.0300 
     49 H49       -16.4864  -15.7085   39.2763 H         1 UNK         0.0300 
@<TRIPOS>BOND
     1    1    2 ar   
     2    1    4 ar   
     3    1   28 1    
     4    2    6 ar   
     5    2   29 1    
     6    3    5 ar   
     7    3    8 ar   
     8    3   30 1    
     9    4    9 ar   
    10    4   31 1    
    11    5   10 ar   
    12    5   32 1    
    13    6   12 ar   
    14    6   33 1    
    15    7    8 ar   
    16    7   11 ar   
    17    7   34 1    
    18    8   14 1    
    19    9   12 ar   
    20    9   22 1    
    21   10   11 ar   
    22   10   25 1    
    23   11   26 1    
    24   12   27 1    
    25   13   19 1    
    26   13   22 2    
    27   13   27 1    
    28   14   23 am   BACKBONE|DICT|INTERRES
    29   14   24 2    
    30   15   16 1    
    31   15   17 1    
    32   15   35 1    
    33   15   36 1    
    34   16   19 1    
    35   16   37 1    
    36   16   38 1    
    37   17   23 1    
    38   17   39 1    
    39   17   40 1    
    40   18   19 1    
    41   18   23 1    
    42   18   41 1    
    43   18   42 1    
    44   19   43 1    
    45   20   25 1    
    46   20   44 1    
    47   20   45 1    
    48   20   46 1    
    49   21   26 1    
    50   21   47 1    
    51   21   48 1    
    52   21   49 1    
@<TRIPOS>SUBSTRUCTURE
     1 UNK         1 GROUP             0       ****    0 ROOT    
@<TRIPOS>MOLECULE
ZINC12938628_54
49   52    1
SMALL
USER_CHARGES


@<TRIPOS>ATOM
      1 C1        -14.8054  -24.7574   34.3094 C.ar      1 UNK         0.0055 
      2 C2        -13.5707  -24.2398   33.8732 C.ar      1 UNK        -0.3011 
      3 C3        -15.3590  -24.3249   35.5308 C.ar      1 UNK        -0.4461 
      4 C4        -12.8904  -23.2887   34.6575 C.ar      1 UNK        -0.1407 
      5 C5        -18.1669  -18.5276   38.7968 C.ar      1 UNK        -0.1150 
      6 C6        -16.7829  -16.5233   38.8558 C.ar      1 UNK        -0.1150 
      7 C7        -18.5054  -16.7686   37.1543 C.ar      1 UNK        -0.1150 
      8 C8        -17.1081  -17.7936   39.3743 C.ar      1 UNK        -0.1150 
      9 C9        -14.7006  -23.3741   36.3384 C.ar      1 UNK         0.6314 
     10 C10       -18.8676  -18.0321   37.6823 C.ar      1 UNK         0.0850 
     11 C11       -17.4749  -16.0036   37.7356 C.ar      1 UNK         0.0850 
     12 C12       -13.4528  -22.8642   35.8756 C.ar      1 UNK        -0.1027 
     13 C13       -14.2578  -21.9877   38.0365 C.2       1 UNK         0.2008 
     14 C14       -16.3700  -18.3105   40.5775 C.2       1 UNK         0.6150 
     15 C15       -15.2335  -21.6775   41.7443 C.3       1 UNK        -0.1200 
     16 C16       -14.4440  -22.2275   40.5461 C.3       1 UNK        -0.1200 
     17 C17       -15.2775  -20.1401   41.7761 C.3       1 UNK        -0.0500 
     18 C18       -15.7128  -20.3626   39.3075 C.3       1 UNK        -0.0500 
     19 C19       -14.4725  -21.2757   39.3354 C.3       1 UNK         0.0550 
     20 C20       -20.6134  -18.3451   36.0667 C.3       1 UNK         0.1100 
     21 C21       -16.2149  -13.9605   37.7614 C.3       1 UNK         0.1100 
     22 N22       -15.1427  -22.8719   37.5574 N.2       1 UNK        -0.5991 
     23 N23       -15.8563  -19.5670   40.5455 N.am      1 UNK        -0.1400 
     24 O24       -16.2429  -17.5680   41.5513 O.2       1 UNK        -0.5000 
     25 O25       -19.8747  -18.8266   37.1798 O.3       1 UNK        -0.2850 
     26 O26       -17.2089  -14.7792   37.1620 O.3       1 UNK        -0.2850 
     27 S27       -12.8245  -21.7023   37.0392 S.3       1 UNK        -0.0839 
     28 H28       -15.3292  -25.4867   33.7072 H         1 UNK         0.1296 
     29 H29       -13.1466  -24.5739   32.9355 H         1 UNK         0.1749 
     30 H30       -16.3044  -24.7192   35.8691 H         1 UNK         0.2114 
     31 H31       -11.9433  -22.8833   34.3333 H         1 UNK         0.2050 
     32 H32       -18.4547  -19.4831   39.2111 H         1 UNK         0.1150 
     33 H33       -15.9927  -15.9666   39.3379 H         1 UNK         0.1150 
     34 H34       -19.0151  -16.3501   36.3007 H         1 UNK         0.1150 
     35 H35       -16.2582  -22.0492   41.6936 H         1 UNK         0.0600 
     36 H36       -14.8199  -22.0677   42.6750 H         1 UNK         0.0600 
     37 H37       -13.4083  -22.4297   40.8212 H         1 UNK         0.0600 
     38 H38       -14.8754  -23.1935   40.2787 H         1 UNK         0.0600 
     39 H39       -15.8584  -19.8315   42.6482 H         1 UNK         0.0600 
     40 H40       -14.2745  -19.7340   41.9167 H         1 UNK         0.0600 
     41 H41       -15.6261  -19.7143   38.4340 H         1 UNK         0.0600 
     42 H42       -16.6093  -20.9672   39.1640 H         1 UNK         0.0600 
     43 H43       -13.6185  -20.6066   39.4532 H         1 UNK         0.0600 
     44 H44       -19.9726  -18.2013   35.1958 H         1 UNK         0.0300 
     45 H45       -21.1223  -17.4090   36.3006 H         1 UNK         0.0300 
     46 H46       -21.3762  -19.0757   35.7980 H         1 UNK         0.0300 
     47 H47       -16.1384  -13.0239   37.2092 H         1 UNK         0.0300 
     48 H48       -15.2350  -14.4389   37.7352 H         1 UNK         0.0300 
     49 H49       -16.4700  -13.7144   38.7931 H         1 UNK         0.0300 
@<TRIPOS>BOND
     1    1    2 ar   
     2    1    3 ar   
     3    1   28 1    
     4    2    4 ar   
     5    2   29 1    
     6    3    9 ar   
     7    3   30 1    
     8    4   12 ar   
     9    4   31 1    
    10    5    8 ar   
    11    5   10 ar   
    12    5   32 1    
    13    6    8 ar   
    14    6   11 ar   
    15    6   33 1    
    16    7   10 ar   
    17    7   11 ar   
    18    7   34 1    
    19    8   14 1    
    20    9   12 ar   
    21    9   22 1    
    22   10   25 1    
    23   11   26 1    
    24   12   27 1    
    25   13   19 1    
    26   13   22 2    
    27   13   27 1    
    28   14   23 am   BACKBONE|DICT|INTERRES
    29   14   24 2    
    30   15   16 1    
    31   15   17 1    
    32   15   35 1    
    33   15   36 1    
    34   16   19 1    
    35   16   37 1    
    36   16   38 1    
    37   17   23 1    
    38   17   39 1    
    39   17   40 1    
    40   18   19 1    
    41   18   23 1    
    42   18   41 1    
    43   18   42 1    
    44   19   43 1    
    45   20   25 1    
    46   20   44 1    
    47   20   45 1    
    48   20   46 1    
    49   21   26 1    
    50   21   47 1    
    51   21   48 1    
    52   21   49 1    
@<TRIPOS>SUBSTRUCTURE
     1 UNK         1 GROUP             0       ****    0 ROOT    
@<TRIPOS>MOLECULE
ZINC12951355_119
46   49    1
SMALL
USER_CHARGES


@<TRIPOS>ATOM
      1 C1         -5.0681   -9.2722   36.3487 C.ar      1 UNK        -0.1150 
      2 C2         -4.7673   -9.9552   35.1480 C.ar      1 UNK        -0.1150 
      3 C3         -4.9170   -9.5587   40.2108 C.ar      1 UNK        -0.3200 
      4 C4         -4.2483  -11.1624   37.6785 C.ar      1 UNK        -0.1150 
      5 C5         -7.7487   -5.7349   38.3855 C.ar      1 UNK        -0.1150 
      6 C6         -6.8664   -3.9558   39.7833 C.ar      1 UNK        -0.1150 
      7 C7         -5.4147   -8.5327   40.9647 C.ar      1 UNK         0.0360 
      8 C8         -4.8159   -9.8644   37.6191 C.ar      1 UNK        -0.0454 
      9 C9         -7.0341   -5.3309   39.5321 C.ar      1 UNK        -0.1150 
     10 C10        -4.2102  -11.2380   35.2495 C.ar      1 UNK         0.0850 
     11 C11        -3.9588  -11.8207   36.4731 C.ar      1 UNK         0.0850 
     12 C12        -8.2448   -4.7903   37.4539 C.ar      1 UNK         0.0850 
     13 C13        -7.3589   -2.9882   38.8768 C.ar      1 UNK         0.0850 
     14 C14        -8.0248   -3.4041   37.7000 C.ar      1 UNK         0.0850 
     15 C15        -5.1386   -9.1502   38.8634 C.ar      1 UNK         0.3834 
     16 C16        -6.5126   -6.3326   40.5279 C.2       1 UNK         0.7375 
     17 C17        -3.3434  -13.2320   34.8964 C.3       1 UNK         0.2000 
     18 C18        -9.1143   -6.5543   36.0495 C.3       1 UNK         0.1100 
     19 C19        -6.6167   -1.1699   40.2708 C.3       1 UNK         0.1100 
     20 C20        -8.4404   -2.6104   35.4653 C.3       1 UNK         0.1100 
     21 N21        -5.7243   -7.9619   38.8133 N.2       1 UNK        -0.5310 
     22 N22        -5.9065   -7.5764   40.0990 N.pl3     1 UNK         0.0695 
     23 O23        -6.5259   -6.0928   41.7373 O.2       1 UNK        -0.5000 
     24 O24        -3.8406  -12.0851   34.2564 O.3       1 UNK        -0.2850 
     25 O25        -3.4226  -13.0533   36.2877 O.3       1 UNK        -0.2850 
     26 O26        -8.9601   -5.1710   36.3350 O.3       1 UNK        -0.2850 
     27 O27        -7.2136   -1.6286   39.0674 O.3       1 UNK        -0.2850 
     28 O28        -8.4560   -2.3903   36.8677 O.3       1 UNK        -0.2850 
     29 H29        -5.4963   -8.2818   36.2901 H         1 UNK         0.1150 
     30 H30        -4.9582   -9.5070   34.1844 H         1 UNK         0.1150 
     31 H31        -4.4615  -10.4677   40.5727 H         1 UNK         0.1500 
     32 H32        -4.0403  -11.6480   38.6189 H         1 UNK         0.1150 
     33 H33        -7.9122   -6.7909   38.2389 H         1 UNK         0.1150 
     34 H34        -6.3468   -3.6648   40.6838 H         1 UNK         0.1150 
     35 H35        -5.4621   -8.4031   42.0374 H         1 UNK         0.1350 
     36 H36        -3.9369  -14.0992   34.6044 H         1 UNK         0.1000 
     37 H37        -2.3044  -13.3909   34.6058 H         1 UNK         0.1000 
     38 H38        -9.6538   -6.6675   35.1093 H         1 UNK         0.0300 
     39 H39        -9.6948   -7.0591   36.8227 H         1 UNK         0.0300 
     40 H40        -8.1492   -7.0508   35.9359 H         1 UNK         0.0300 
     41 H41        -6.6172   -0.0801   40.2777 H         1 UNK         0.0300 
     42 H42        -5.5800   -1.4988   40.3530 H         1 UNK         0.0300 
     43 H43        -7.1754   -1.5048   41.1458 H         1 UNK         0.0300 
     44 H44        -8.3368   -1.6523   34.9565 H         1 UNK         0.0300 
     45 H45        -9.3757   -3.0565   35.1277 H         1 UNK         0.0300 
     46 H46        -7.6047   -3.2388   35.1536 H         1 UNK         0.0300 
@<TRIPOS>BOND
     1    1    2 ar   
     2    1    8 ar   
     3    1   29 1    
     4    2   10 ar   
     5    2   30 1    
     6    3    7 ar   
     7    3   15 ar   
     8    3   31 1    
     9    4    8 ar   
    10    4   11 ar   
    11    4   32 1    
    12    5    9 ar   
    13    5   12 ar   
    14    5   33 1    
    15    6    9 ar   
    16    6   13 ar   
    17    6   34 1    
    18    7   22 ar   
    19    7   35 1    
    20    8   15 1    
    21    9   16 1    
    22   10   11 ar   
    23   10   24 1    
    24   11   25 1    
    25   12   14 ar   
    26   12   26 1    
    27   13   14 ar   
    28   13   27 1    
    29   14   28 1    
    30   15   21 ar   
    31   16   22 1    
    32   16   23 2    
    33   17   24 1    
    34   17   25 1    
    35   17   36 1    
    36   17   37 1    
    37   18   26 1    
    38   18   38 1    
    39   18   39 1    
    40   18   40 1    
    41   19   27 1    
    42   19   41 1    
    43   19   42 1    
    44   19   43 1    
    45   20   28 1    
    46   20   44 1    
    47   20   45 1    
    48   20   46 1    
    49   21   22 ar   
@<TRIPOS>SUBSTRUCTURE
     1 UNK         1 GROUP             0       ****    0 ROOT    
@<TRIPOS>MOLECULE
ZINC12982230_89
48   51    1
SMALL
USER_CHARGES


@<TRIPOS>ATOM
      1 C1        -15.3443  -28.9847   36.3564 C.ar      1 UNK         0.0055 
      2 C2        -14.0773  -28.4709   36.0193 C.ar      1 UNK        -0.3011 
      3 C3        -21.0402  -19.5813   37.9055 C.ar      1 UNK        -0.1150 
      4 C4        -21.7979  -18.4798   38.3424 C.ar      1 UNK        -0.1150 
      5 C5        -16.3285  -28.1343   36.8981 C.ar      1 UNK        -0.4461 
      6 C6        -13.7948  -27.1067   36.2243 C.ar      1 UNK        -0.1407 
      7 C7        -19.0128  -18.2358   38.0451 C.ar      1 UNK        -0.1150 
      8 C8        -19.6383  -19.4718   37.7775 C.ar      1 UNK        -0.1150 
      9 C9        -21.1643  -17.2551   38.6360 C.ar      1 UNK        -0.1150 
     10 C10       -16.0749  -26.7637   37.1152 C.ar      1 UNK         0.6314 
     11 C11       -19.7663  -17.1186   38.4836 C.ar      1 UNK         0.0850 
     12 C12       -14.7852  -26.2670   36.7668 C.ar      1 UNK        -0.1027 
     13 C13       -16.3725  -24.6261   37.7014 C.2       1 UNK         0.2008 
     14 C14       -18.8135  -20.6276   37.2852 C.2       1 UNK         0.6150 
     15 C15       -18.2896  -22.3631   40.2142 C.3       1 UNK        -0.1200 
     16 C16       -17.4722  -23.5681   39.7124 C.3       1 UNK        -0.1200 
     17 C17       -19.4606  -22.0452   39.2639 C.3       1 UNK        -0.0500 
     18 C18       -18.3044  -23.0396   37.3630 C.3       1 UNK        -0.0500 
     19 C19       -17.0859  -23.4201   38.2260 C.3       1 UNK         0.0550 
     20 C20       -21.9900  -16.0730   39.1056 C.3       1 UNK        -0.0650 
     21 C21       -17.8189  -15.7149   38.5858 C.3       1 UNK         0.1100 
     22 N22       -16.9602  -25.8290   37.6411 N.2       1 UNK        -0.5991 
     23 N23       -18.9341  -21.8278   37.9064 N.am      1 UNK        -0.1400 
     24 O24       -18.0571  -20.4475   36.3312 O.2       1 UNK        -0.5000 
     25 O25       -19.2158  -15.8878   38.7738 O.3       1 UNK        -0.2850 
     26 S26       -14.7020  -24.5455   37.1243 S.3       1 UNK        -0.0839 
     27 H27       -15.5626  -30.0319   36.1995 H         1 UNK         0.1296 
     28 H28       -13.3229  -29.1249   35.6022 H         1 UNK         0.1749 
     29 H29       -21.5374  -20.5115   37.6691 H         1 UNK         0.1150 
     30 H30       -22.8689  -18.5779   38.4448 H         1 UNK         0.1150 
     31 H31       -17.3007  -28.5238   37.1565 H         1 UNK         0.2114 
     32 H32       -12.8276  -26.6993   35.9694 H         1 UNK         0.2050 
     33 H33       -17.9442  -18.1727   37.9042 H         1 UNK         0.1150 
     34 H34       -17.6399  -21.4902   40.2952 H         1 UNK         0.0600 
     35 H35       -18.6645  -22.5604   41.2193 H         1 UNK         0.0600 
     36 H36       -16.5791  -23.7035   40.3236 H         1 UNK         0.0600 
     37 H37       -18.0680  -24.4735   39.8373 H         1 UNK         0.0600 
     38 H38       -20.1708  -22.8733   39.2463 H         1 UNK         0.0600 
     39 H39       -20.0063  -21.1926   39.6643 H         1 UNK         0.0600 
     40 H40       -19.0314  -23.8529   37.3606 H         1 UNK         0.0600 
     41 H41       -17.9998  -22.9160   36.3220 H         1 UNK         0.0600 
     42 H42       -16.3785  -22.5917   38.1583 H         1 UNK         0.0600 
     43 H43       -21.8792  -15.2390   38.4120 H         1 UNK         0.0600 
     44 H44       -21.6508  -15.7459   40.0888 H         1 UNK         0.0600 
     45 H45       -23.0490  -16.3216   39.1745 H         1 UNK         0.0600 
     46 H46       -17.5474  -14.6891   38.8346 H         1 UNK         0.0300 
     47 H47       -17.2443  -16.3752   39.2367 H         1 UNK         0.0300 
     48 H48       -17.5318  -15.8885   37.5477 H         1 UNK         0.0300 
@<TRIPOS>BOND
     1    1    2 ar   
     2    1    5 ar   
     3    1   27 1    
     4    2    6 ar   
     5    2   28 1    
     6    3    4 ar   
     7    3    8 ar   
     8    3   29 1    
     9    4    9 ar   
    10    4   30 1    
    11    5   10 ar   
    12    5   31 1    
    13    6   12 ar   
    14    6   32 1    
    15    7    8 ar   
    16    7   11 ar   
    17    7   33 1    
    18    8   14 1    
    19    9   11 ar   
    20    9   20 1    
    21   10   12 ar   
    22   10   22 1    
    23   11   25 1    
    24   12   26 1    
    25   13   19 1    
    26   13   22 2    
    27   13   26 1    
    28   14   23 am   BACKBONE|DICT|INTERRES
    29   14   24 2    
    30   15   16 1    
    31   15   17 1    
    32   15   34 1    
    33   15   35 1    
    34   16   19 1    
    35   16   36 1    
    36   16   37 1    
    37   17   23 1    
    38   17   38 1    
    39   17   39 1    
    40   18   19 1    
    41   18   23 1    
    42   18   40 1    
    43   18   41 1    
    44   19   42 1    
    45   20   43 1    
    46   20   44 1    
    47   20   45 1    
    48   21   25 1    
    49   21   46 1    
    50   21   47 1    
    51   21   48 1    
@<TRIPOS>SUBSTRUCTURE
     1 UNK         1 GROUP             0       ****    0 ROOT    
@<TRIPOS>MOLECULE
ZINC12984957_14
46   48    1
SMALL
USER_CHARGES


@<TRIPOS>ATOM
      1 C1         -3.8627   -6.8530   36.9362 C.ar      1 UNK        -0.1150 
      2 C2         -4.1346   -8.1013   36.3519 C.ar      1 UNK        -0.1150 
      3 C3         -4.3036   -6.5811   38.2437 C.ar      1 UNK        -0.1150 
      4 C4         -4.8433   -9.0740   37.0795 C.ar      1 UNK        -0.1150 
      5 C5         -7.5911   -5.9226   38.5263 C.ar      1 UNK        -0.1150 
      6 C6         -6.7111   -3.9019   39.5634 C.ar      1 UNK        -0.1150 
      7 C7         -6.8258   -5.3067   39.5408 C.ar      1 UNK        -0.1150 
      8 C8         -5.0373   -7.5440   38.9811 C.ar      1 UNK        -0.0383 
      9 C9         -8.1880   -5.1546   37.4994 C.ar      1 UNK         0.0850 
     10 C10        -7.3078   -3.1110   38.5527 C.ar      1 UNK         0.0850 
     11 C11        -8.0301   -3.7484   37.5189 C.ar      1 UNK         0.0850 
     12 C12        -5.2978   -8.8132   38.3879 C.ar      1 UNK         0.1525 
     13 C13        -6.1875   -6.1201   40.6364 C.2       1 UNK         0.6150 
     14 C14        -6.2234   -9.0847   41.7788 C.3       1 UNK        -0.1200 
     15 C15        -5.0624   -8.1592   41.3697 C.3       1 UNK        -0.0500 
     16 C16        -7.1272   -9.5098   40.6107 C.3       1 UNK         0.0475 
     17 C17        -9.0548   -7.1178   36.4093 C.3       1 UNK         0.1100 
     18 C18        -6.5435   -1.0630   39.5561 C.3       1 UNK         0.1100 
     19 C19        -7.9145   -3.0154   35.3052 C.3       1 UNK         0.1100 
     20 N20        -5.4556   -7.2223   40.3098 N.am      1 UNK        -0.0317 
     21 O21        -6.3276   -5.7395   41.7995 O.2       1 UNK        -0.5000 
     22 O22        -8.9300   -5.7046   36.4738 O.3       1 UNK        -0.2850 
     23 O23        -7.2161   -1.7351   38.5022 O.3       1 UNK        -0.2850 
     24 O24        -8.6029   -2.9719   36.5440 O.3       1 UNK        -0.2850 
     25 S25        -6.1816  -10.1312   39.1930 S.3       1 UNK        -0.3200 
     26 H26        -3.3125   -6.1044   36.3837 H         1 UNK         0.1150 
     27 H27        -3.7951   -8.3163   35.3488 H         1 UNK         0.1150 
     28 H28        -4.0741   -5.6178   38.6770 H         1 UNK         0.1150 
     29 H29        -5.0426  -10.0349   36.6277 H         1 UNK         0.1150 
     30 H30        -7.7029   -6.9951   38.5482 H         1 UNK         0.1150 
     31 H31        -6.1517   -3.4526   40.3703 H         1 UNK         0.1150 
     32 H32        -5.8161   -9.9686   42.2712 H         1 UNK         0.0600 
     33 H33        -6.8390   -8.5832   42.5271 H         1 UNK         0.0600 
     34 H34        -4.6767   -7.6278   42.2417 H         1 UNK         0.0600 
     35 H35        -4.2253   -8.7649   41.0187 H         1 UNK         0.0600 
     36 H36        -7.8039  -10.2973   40.9442 H         1 UNK         0.0600 
     37 H37        -7.7625   -8.6874   40.2818 H         1 UNK         0.0600 
     38 H38        -9.6370   -7.3866   35.5280 H         1 UNK         0.0300 
     39 H39        -9.5784   -7.5112   37.2816 H         1 UNK         0.0300 
     40 H40        -8.0812   -7.6025   36.3217 H         1 UNK         0.0300 
     41 H41        -6.5899    0.0120   39.3826 H         1 UNK         0.0300 
     42 H42        -5.4907   -1.3441   39.6002 H         1 UNK         0.0300 
     43 H43        -7.0130   -1.2614   40.5206 H         1 UNK         0.0300 
     44 H44        -8.3613   -2.2984   34.6169 H         1 UNK         0.0300 
     45 H45        -7.9696   -4.0005   34.8415 H         1 UNK         0.0300 
     46 H46        -6.8642   -2.7482   35.4310 H         1 UNK         0.0300 
@<TRIPOS>BOND
     1    1    2 ar   
     2    1    3 ar   
     3    1   26 1    
     4    2    4 ar   
     5    2   27 1    
     6    3    8 ar   
     7    3   28 1    
     8    4   12 ar   
     9    4   29 1    
    10    5    7 ar   
    11    5    9 ar   
    12    5   30 1    
    13    6    7 ar   
    14    6   10 ar   
    15    6   31 1    
    16    7   13 1    
    17    8   12 ar   
    18    8   20 1    
    19    9   11 ar   
    20    9   22 1    
    21   10   11 ar   
    22   10   23 1    
    23   11   24 1    
    24   12   25 1    
    25   13   20 am   BACKBONE|DICT|INTERRES
    26   13   21 2    
    27   14   15 1    
    28   14   16 1    
    29   14   32 1    
    30   14   33 1    
    31   15   20 1    
    32   15   34 1    
    33   15   35 1    
    34   16   25 1    
    35   16   36 1    
    36   16   37 1    
    37   17   22 1    
    38   17   38 1    
    39   17   39 1    
    40   17   40 1    
    41   18   23 1    
    42   18   41 1    
    43   18   42 1    
    44   18   43 1    
    45   19   24 1    
    46   19   44 1    
    47   19   45 1    
    48   19   46 1    
@<TRIPOS>SUBSTRUCTURE
     1 UNK         1 GROUP             0       ****    0 ROOT    
@<TRIPOS>MOLECULE
ZINC12985487_111
43   45    1
SMALL
USER_CHARGES


@<TRIPOS>ATOM
      1 C1         -4.3774  -13.3750   35.9138 C.ar      1 UNK        -0.1925 
      2 C2         -3.9621  -12.1729   35.3015 C.ar      1 UNK        -0.1228 
      3 C3         -5.1631  -13.3498   37.0882 C.ar      1 UNK        -0.3038 
      4 C4         -4.3325  -10.9365   35.8655 C.ar      1 UNK        -0.3245 
      5 C5         -6.3099  -11.6985   38.8107 C.2       1 UNK        -0.5146 
      6 C6         -7.9447   -4.7236   39.5232 C.ar      1 UNK        -0.1150 
      7 C7         -9.0473   -6.6324   38.4797 C.ar      1 UNK        -0.1150 
      8 C8         -5.5489  -12.1223   37.6742 C.ar      1 UNK         0.2581 
      9 C9         -8.0924   -6.1166   39.3784 C.ar      1 UNK        -0.0418 
     10 C10        -5.1122  -10.9363   37.0325 C.ar      1 UNK         0.3230 
     11 C11        -8.7418   -3.8338   38.7633 C.ar      1 UNK         0.0850 
     12 C12        -9.8528   -5.7617   37.7073 C.ar      1 UNK         0.0850 
     13 C13        -9.6885   -4.3655   37.8585 C.ar      1 UNK         0.0850 
     14 C14        -6.2920  -10.3213   38.7994 C.2       1 UNK         0.1363 
     15 C15        -6.9215   -9.3909   39.7359 C.2       1 UNK         0.6250 
     16 C16        -7.7122   -1.8955   39.7490 C.3       1 UNK         0.1100 
     17 C17       -10.9765   -7.5924   36.6243 C.3       1 UNK         0.1100 
     18 C18        -9.9447   -3.2285   35.8455 C.3       1 UNK         0.1100 
     19 C19        -7.2425   -7.0574   40.2120 C.3       1 UNK         0.2318 
     20 O20        -7.5984   -9.7784   40.6890 O.2       1 UNK        -0.4300 
     21 O21        -5.5726   -9.8415   37.7295 O.3       1 UNK        -0.3115 
     22 O22        -8.6492   -2.4593   38.8443 O.3       1 UNK        -0.2850 
     23 O23       -10.8011   -6.1950   36.8031 O.3       1 UNK        -0.2850 
     24 O24       -10.4718   -3.5078   37.1307 O.3       1 UNK        -0.2850 
     25 O25        -6.6845   -8.1028   39.4303 O.3       1 UNK        -0.3300 
     26 H26        -4.0912  -14.3234   35.4793 H         1 UNK         0.1571 
     27 H27        -3.3614  -12.2011   34.4025 H         1 UNK         0.1498 
     28 H28        -5.4747  -14.2763   37.5463 H         1 UNK         0.1930 
     29 H29        -4.0291  -10.0023   35.4190 H         1 UNK         0.1955 
     30 H30        -6.8031  -12.3256   39.5375 H         1 UNK         0.2419 
     31 H31        -7.2103   -4.3572   40.2233 H         1 UNK         0.1150 
     32 H32        -9.1436   -7.7036   38.3976 H         1 UNK         0.1150 
     33 H33        -7.7715   -0.8085   39.6952 H         1 UNK         0.0300 
     34 H34        -6.6911   -2.1820   39.4947 H         1 UNK         0.0300 
     35 H35        -7.9260   -2.1859   40.7783 H         1 UNK         0.0300 
     36 H36       -11.7529   -7.7637   35.8788 H         1 UNK         0.0300 
     37 H37       -11.2957   -8.0761   37.5484 H         1 UNK         0.0300 
     38 H38       -10.0627   -8.0661   36.2628 H         1 UNK         0.0300 
     39 H39       -10.6105   -2.5456   35.3183 H         1 UNK         0.0300 
     40 H40        -9.8502   -4.1349   35.2457 H         1 UNK         0.0300 
     41 H41        -8.9650   -2.7539   35.9181 H         1 UNK         0.0300 
     42 H42        -6.4210   -6.5000   40.6621 H         1 UNK         0.0300 
     43 H43        -7.8524   -7.4269   41.0375 H         1 UNK         0.0300 
@<TRIPOS>BOND
     1    1    2 ar   
     2    1    3 ar   
     3    1   26 1    
     4    2    4 ar   
     5    2   27 1    
     6    3    8 ar   
     7    3   28 1    
     8    4   10 ar   
     9    4   29 1    
    10    5    8 1    
    11    5   14 2    
    12    5   30 1    
    13    6    9 ar   
    14    6   11 ar   
    15    6   31 1    
    16    7    9 ar   
    17    7   12 ar   
    18    7   32 1    
    19    8   10 ar   
    20    9   19 1    
    21   10   21 1    
    22   11   13 ar   
    23   11   22 1    
    24   12   13 ar   
    25   12   23 1    
    26   13   24 1    
    27   14   15 1    
    28   14   21 1    
    29   15   20 2    
    30   15   25 1    
    31   16   22 1    
    32   16   33 1    
    33   16   34 1    
    34   16   35 1    
    35   17   23 1    
    36   17   36 1    
    37   17   37 1    
    38   17   38 1    
    39   18   24 1    
    40   18   39 1    
    41   18   40 1    
    42   18   41 1    
    43   19   25 1    
    44   19   42 1    
    45   19   43 1    
@<TRIPOS>SUBSTRUCTURE
     1 UNK         1 GROUP             0       ****    0 ROOT    
@<TRIPOS>MOLECULE
ZINC12998040_65
47   49    1
SMALL
USER_CHARGES


@<TRIPOS>ATOM
      1 C1         -3.0015  -11.5250   37.7878 C.ar      1 UNK        -0.1150 
      2 C2         -5.0187  -12.6759   36.9837 C.ar      1 UNK        -0.1150 
      3 C3         -2.2028  -12.4476   37.0821 C.ar      1 UNK        -0.1150 
      4 C4         -4.2082  -13.5923   36.2836 C.ar      1 UNK        -0.1150 
      5 C5         -9.2101   -5.8254   38.1581 C.ar      1 UNK        -0.1150 
      6 C6         -7.8436   -4.1453   39.2620 C.ar      1 UNK        -0.1150 
      7 C7         -4.4087  -11.6464   37.7319 C.ar      1 UNK         0.0631 
      8 C8         -8.1392   -5.5028   39.0101 C.ar      1 UNK         0.0850 
      9 C9         -9.9637   -4.8102   37.5237 C.ar      1 UNK         0.0850 
     10 C10        -8.5840   -3.1061   38.6437 C.ar      1 UNK         0.0850 
     11 C11        -9.6372   -3.4523   37.7482 C.ar      1 UNK         0.0850 
     12 C12        -2.8048  -13.4776   36.3322 C.ar      1 UNK         0.2200 
     13 C13        -5.2743  -10.6934   38.4536 C.2       1 UNK         0.2986 
     14 C14        -7.0291   -9.6542   39.1845 C.2       1 UNK         0.5159 
     15 C15        -6.2040   -6.6360   40.1327 C.2       1 UNK         0.5000 
     16 C16       -11.4013   -6.4182   36.4500 C.3       1 UNK         0.1100 
     17 C17        -7.2839   -1.4211   39.7911 C.3       1 UNK         0.1100 
     18 C18        -9.8304   -1.3193   36.6437 C.3       1 UNK         0.1100 
     19 C19        -5.6874   -8.0021   40.6170 C.3       1 UNK         0.0800 
     20 N20        -4.7966   -9.7747   39.2113 N.2       1 UNK        -0.2833 
     21 N21        -5.8600   -9.1110   39.6707 N.am      1 UNK        -0.1323 
     22 N22        -7.4394   -6.5901   39.6012 N.am      1 UNK        -0.3850 
     23 O23        -8.1839   -9.2877   39.3960 O.2       1 UNK        -0.4970 
     24 O24        -5.4675   -5.6582   40.2431 O.2       1 UNK        -0.5000 
     25 O25        -6.6473  -10.6648   38.4039 O.3       1 UNK        -0.1650 
     26 O26       -11.0158   -5.0694   36.6672 O.3       1 UNK        -0.2850 
     27 O27        -8.3372   -1.7714   38.9046 O.3       1 UNK        -0.2850 
     28 O28       -10.4223   -2.5342   37.0789 O.3       1 UNK        -0.2850 
     29 F29        -2.0331  -14.3592   35.6565 F         1 UNK        -0.2200 
     30 H30        -2.5278  -10.7379   38.3573 H         1 UNK         0.1150 
     31 H31        -6.0943  -12.7720   36.9392 H         1 UNK         0.1150 
     32 H32        -1.1260  -12.3684   37.1111 H         1 UNK         0.1150 
     33 H33        -4.6586  -14.3860   35.7059 H         1 UNK         0.1150 
     34 H34        -9.4359   -6.8677   37.9926 H         1 UNK         0.1150 
     35 H35        -7.0511   -3.9056   39.9504 H         1 UNK         0.1150 
     36 H36       -12.2569   -6.4417   35.7754 H         1 UNK         0.0300 
     37 H37       -11.7026   -6.9020   37.3801 H         1 UNK         0.0300 
     38 H38       -10.5995   -6.9924   35.9842 H         1 UNK         0.0300 
     39 H39        -7.2228   -0.3353   39.8624 H         1 UNK         0.0300 
     40 H40        -6.3194   -1.7807   39.4299 H         1 UNK         0.0300 
     41 H41        -7.4631   -1.8057   40.7960 H         1 UNK         0.0300 
     42 H42       -10.3811   -0.9450   35.7811 H         1 UNK         0.0300 
     43 H43        -8.7916   -1.4508   36.3370 H         1 UNK         0.0300 
     44 H44        -9.8869   -0.5553   37.4193 H         1 UNK         0.0300 
     45 H45        -6.2081   -8.2507   41.5421 H         1 UNK         0.0600 
     46 H46        -4.6331   -7.9016   40.8801 H         1 UNK         0.0600 
     47 H47        -7.9072   -7.4923   39.5432 H         1 UNK         0.3000 
@<TRIPOS>BOND
     1    1    3 ar   
     2    1    7 ar   
     3    1   30 1    
     4    2    4 ar   
     5    2    7 ar   
     6    2   31 1    
     7    3   12 ar   
     8    3   32 1    
     9    4   12 ar   
    10    4   33 1    
    11    5    8 ar   
    12    5    9 ar   
    13    5   34 1    
    14    6    8 ar   
    15    6   10 ar   
    16    6   35 1    
    17    7   13 1    
    18    8   22 1    
    19    9   11 ar   
    20    9   26 1    
    21   10   11 ar   
    22   10   27 1    
    23   11   28 1    
    24   12   29 1    
    25   13   20 2    
    26   13   25 1    
    27   14   21 am   BACKBONE|DICT|INTERRES
    28   14   23 2    
    29   14   25 1    
    30   15   19 1    
    31   15   22 am   BACKBONE|DICT|INTERRES
    32   15   24 2    
    33   16   26 1    
    34   16   36 1    
    35   16   37 1    
    36   16   38 1    
    37   17   27 1    
    38   17   39 1    
    39   17   40 1    
    40   17   41 1    
    41   18   28 1    
    42   18   42 1    
    43   18   43 1    
    44   18   44 1    
    45   19   21 1    
    46   19   45 1    
    47   19   46 1    
    48   20   21 1    
    49   22   47 1    
@<TRIPOS>SUBSTRUCTURE
     1 UNK         1 GROUP             0       ****    0 ROOT    
@<TRIPOS>MOLECULE
ZINC13006631_83
52   54    1
SMALL
USER_CHARGES


@<TRIPOS>ATOM
      1 C1         -6.9356  -11.8974   40.1971 C.ar      1 UNK        -0.1150 
      2 C2         -7.0812  -12.3980   38.8892 C.ar      1 UNK        -0.1150 
      3 C3         -8.3842   -5.4732   39.5751 C.ar      1 UNK        -0.1150 
      4 C4         -8.5032   -7.7151   38.6170 C.ar      1 UNK        -0.1150 
      5 C5         -5.6156  -10.0476   39.3351 C.ar      1 UNK        -0.1150 
      6 C6         -9.3152   -5.8050   37.3536 C.ar      1 UNK        -0.1150 
      7 C7         -8.1668   -6.8614   39.6922 C.ar      1 UNK        -0.1150 
      8 C8         -5.7585  -10.5458   38.0246 C.ar      1 UNK        -0.1150 
      9 C9         -6.2051  -10.7163   40.4256 C.ar      1 UNK        -0.1150 
     10 C10        -6.5018  -11.7317   37.7818 C.ar      1 UNK         0.2100 
     11 C11        -8.9642   -4.9324   38.4025 C.ar      1 UNK         0.0850 
     12 C12        -9.0904   -7.1927   37.4406 C.ar      1 UNK         0.0850 
     13 C13        -7.5332   -7.4134   40.9328 C.2       1 UNK         0.6150 
     14 C14        -5.1031   -9.7878   36.8838 C.3       1 UNK        -0.0050 
     15 C15        -4.8752  -10.6904   35.6711 C.3       1 UNK        -0.1200 
     16 C16        -6.1590  -11.4495   35.3328 C.3       1 UNK         0.0900 
     17 C17        -7.4191  -13.4452   36.2169 C.3       1 UNK         0.0300 
     18 C18        -8.8454   -2.6866   39.2411 C.3       1 UNK         0.1100 
     19 C19        -9.2667   -9.3641   36.4308 C.3       1 UNK         0.1100 
     20 C20        -6.0741  -10.1476   41.8314 C.3       1 UNK        -0.0050 
     21 C21        -7.3580   -9.4530   42.3319 C.3       1 UNK         0.0800 
     22 N22        -6.6470  -12.2329   36.4659 N.pl3     1 UNK        -0.6300 
     23 N23        -7.9653   -8.6245   41.2973 N.am      1 UNK        -0.5000 
     24 O24        -6.6946   -6.7766   41.5663 O.2       1 UNK        -0.5000 
     25 O25        -9.2134   -3.5910   38.2097 O.3       1 UNK        -0.2850 
     26 O26        -9.4600   -7.9586   36.3560 O.3       1 UNK        -0.2850 
     27 H27        -7.3913  -12.4248   41.0222 H         1 UNK         0.1150 
     28 H28        -7.6469  -13.3068   38.7590 H         1 UNK         0.1150 
     29 H29        -8.0951   -4.8434   40.4036 H         1 UNK         0.1150 
     30 H30        -8.2898   -8.7700   38.7031 H         1 UNK         0.1150 
     31 H31        -5.0575   -9.1369   39.5016 H         1 UNK         0.1150 
     32 H32        -9.7600   -5.3987   36.4574 H         1 UNK         0.1150 
     33 H33        -5.7532   -8.9550   36.6132 H         1 UNK         0.0600 
     34 H34        -4.1564   -9.3597   37.2142 H         1 UNK         0.0600 
     35 H35        -4.5367  -10.1032   34.8173 H         1 UNK         0.0600 
     36 H36        -4.0838  -11.4078   35.8927 H         1 UNK         0.0600 
     37 H37        -6.9358  -10.7532   35.0162 H         1 UNK         0.0600 
     38 H38        -5.9702  -12.1092   34.4849 H         1 UNK         0.0600 
     39 H39        -7.4558  -13.6797   35.1525 H         1 UNK         0.0600 
     40 H40        -8.4468  -13.3300   36.5640 H         1 UNK         0.0600 
     41 H41        -6.9697  -14.2981   36.7272 H         1 UNK         0.0600 
     42 H42        -9.0835   -1.6697   38.9297 H         1 UNK         0.0300 
     43 H43        -7.7743   -2.7260   39.4448 H         1 UNK         0.0300 
     44 H44        -9.3963   -2.8874   40.1610 H         1 UNK         0.0300 
     45 H45        -9.5941   -9.8267   35.4999 H         1 UNK         0.0300 
     46 H46        -9.8473   -9.8052   37.2418 H         1 UNK         0.0300 
     47 H47        -8.2149   -9.6110   36.5685 H         1 UNK         0.0300 
     48 H48        -5.2508   -9.4313   41.8459 H         1 UNK         0.0600 
     49 H49        -5.7865  -10.9439   42.5190 H         1 UNK         0.0600 
     50 H50        -8.0922  -10.2096   42.6091 H         1 UNK         0.0600 
     51 H51        -7.1568   -8.8699   43.2325 H         1 UNK         0.0600 
     52 H52        -8.6721   -9.0466   40.7165 H         1 UNK         0.3000 
@<TRIPOS>BOND
     1    1    2 ar   
     2    1    9 ar   
     3    1   27 1    
     4    2   10 ar   
     5    2   28 1    
     6    3    7 ar   
     7    3   11 ar   
     8    3   29 1    
     9    4    7 ar   
    10    4   12 ar   
    11    4   30 1    
    12    5    8 ar   
    13    5    9 ar   
    14    5   31 1    
    15    6   11 ar   
    16    6   12 ar   
    17    6   32 1    
    18    7   13 1    
    19    8   10 ar   
    20    8   14 1    
    21    9   20 1    
    22   10   22 1    
    23   11   25 1    
    24   12   26 1    
    25   13   23 am   BACKBONE|DICT|INTERRES
    26   13   24 2    
    27   14   15 1    
    28   14   33 1    
    29   14   34 1    
    30   15   16 1    
    31   15   35 1    
    32   15   36 1    
    33   16   22 1    
    34   16   37 1    
    35   16   38 1    
    36   17   22 1    
    37   17   39 1    
    38   17   40 1    
    39   17   41 1    
    40   18   25 1    
    41   18   42 1    
    42   18   43 1    
    43   18   44 1    
    44   19   26 1    
    45   19   45 1    
    46   19   46 1    
    47   19   47 1    
    48   20   21 1    
    49   20   48 1    
    50   20   49 1    
    51   21   23 1    
    52   21   50 1    
    53   21   51 1    
    54   23   52 1    
@<TRIPOS>SUBSTRUCTURE
     1 UNK         1 GROUP             0       ****    0 ROOT    
@<TRIPOS>MOLECULE
ZINC13006633_66
56   58    1
SMALL
USER_CHARGES


@<TRIPOS>ATOM
      1 C1         -6.9118  -11.8123   40.1720 C.ar      1 UNK        -0.1150 
      2 C2         -7.0859  -12.2904   38.8594 C.ar      1 UNK        -0.1150 
      3 C3         -8.4448   -7.6999   38.6120 C.ar      1 UNK        -0.1150 
      4 C4         -8.3009   -5.4567   39.5404 C.ar      1 UNK        -0.1150 
      5 C5         -5.5007  -10.0234   39.3255 C.ar      1 UNK        -0.1150 
      6 C6         -8.0819   -6.8406   39.6689 C.ar      1 UNK        -0.1150 
      7 C7         -5.6728  -10.4967   38.0093 C.ar      1 UNK        -0.1150 
      8 C8         -6.1221  -10.6720   40.4103 C.ar      1 UNK        -0.1150 
      9 C9         -6.4710  -11.6453   37.7585 C.ar      1 UNK         0.2100 
     10 C10        -9.0486   -7.1860   37.4415 C.ar      1 UNK         0.0850 
     11 C11        -8.9021   -4.9123   38.3782 C.ar      1 UNK         0.0850 
     12 C12        -9.2629   -5.7928   37.3156 C.ar      1 UNK         0.0850 
     13 C13        -7.4271   -7.3809   40.9041 C.2       1 UNK         0.6150 
     14 C14        -4.9820   -9.7486   36.8793 C.3       1 UNK        -0.0050 
     15 C15        -5.5190  -10.1342   35.4984 C.3       1 UNK        -0.1200 
     16 C16        -5.7280  -11.6460   35.4116 C.3       1 UNK         0.0900 
     17 C17        -7.4612  -13.3005   36.1801 C.3       1 UNK         0.0300 
     18 C18        -9.3585   -9.3918   36.5223 C.3       1 UNK         0.1100 
     19 C19        -8.8239   -2.6897   39.3238 C.3       1 UNK         0.1100 
     20 C20        -9.5202   -4.1211   35.5950 C.3       1 UNK         0.1100 
     21 C21        -5.9718  -10.1153   41.8189 C.3       1 UNK        -0.0050 
     22 C22        -7.2405   -9.4008   42.3311 C.3       1 UNK         0.0800 
     23 N23        -6.6566  -12.1114   36.4364 N.pl3     1 UNK        -0.6300 
     24 N24        -7.8606   -8.5831   41.2947 N.am      1 UNK        -0.5000 
     25 O25        -6.5729   -6.7401   41.5123 O.2       1 UNK        -0.5000 
     26 O26        -9.4362   -7.9806   36.3807 O.3       1 UNK        -0.2850 
     27 O27        -9.1718   -3.5625   38.2583 O.3       1 UNK        -0.2850 
     28 O28        -9.8554   -5.3903   36.1343 O.3       1 UNK        -0.2850 
     29 H29        -7.3953  -12.3220   40.9924 H         1 UNK         0.1150 
     30 H30        -7.7019  -13.1646   38.7203 H         1 UNK         0.1150 
     31 H31        -8.2354   -8.7547   38.7048 H         1 UNK         0.1150 
     32 H32        -8.0004   -4.8304   40.3668 H         1 UNK         0.1150 
     33 H33        -4.8989   -9.1425   39.4992 H         1 UNK         0.1150 
     34 H34        -5.0819   -8.6732   37.0305 H         1 UNK         0.0600 
     35 H35        -3.9182   -9.9810   36.9340 H         1 UNK         0.0600 
     36 H36        -6.4704   -9.6331   35.3201 H         1 UNK         0.0600 
     37 H37        -4.8408   -9.7887   34.7179 H         1 UNK         0.0600 
     38 H38        -6.1054  -11.9038   34.4211 H         1 UNK         0.0600 
     39 H39        -4.7763  -12.1658   35.5318 H         1 UNK         0.0600 
     40 H40        -7.5064  -13.5237   35.1138 H         1 UNK         0.0600 
     41 H41        -8.4848  -13.1557   36.5273 H         1 UNK         0.0600 
     42 H42        -7.0388  -14.1709   36.6837 H         1 UNK         0.0600 
     43 H43        -9.7268   -9.8675   35.6136 H         1 UNK         0.0300 
     44 H44        -9.9719   -9.7434   37.3526 H         1 UNK         0.0300 
     45 H45        -8.3328   -9.7238   36.6707 H         1 UNK         0.0300 
     46 H46        -9.1068   -1.6711   39.0584 H         1 UNK         0.0300 
     47 H47        -7.7489   -2.6939   39.5098 H         1 UNK         0.0300 
     48 H48        -9.3539   -2.9482   40.2416 H         1 UNK         0.0300 
     49 H49        -9.6876   -4.1376   34.5185 H         1 UNK         0.0300 
     50 H50        -8.4724   -3.8653   35.7593 H         1 UNK         0.0300 
     51 H51       -10.1560   -3.3381   36.0083 H         1 UNK         0.0300 
     52 H52        -5.1369   -9.4125   41.8321 H         1 UNK         0.0600 
     53 H53        -5.6927  -10.9205   42.4995 H         1 UNK         0.0600 
     54 H54        -7.9766  -10.1465   42.6318 H         1 UNK         0.0600 
     55 H55        -7.0188   -8.8069   43.2198 H         1 UNK         0.0600 
     56 H56        -8.5789   -9.0101   40.7318 H         1 UNK         0.3000 
@<TRIPOS>BOND
     1    1    2 ar   
     2    1    8 ar   
     3    1   29 1    
     4    2    9 ar   
     5    2   30 1    
     6    3    6 ar   
     7    3   10 ar   
     8    3   31 1    
     9    4    6 ar   
    10    4   11 ar   
    11    4   32 1    
    12    5    7 ar   
    13    5    8 ar   
    14    5   33 1    
    15    6   13 1    
    16    7    9 ar   
    17    7   14 1    
    18    8   21 1    
    19    9   23 1    
    20   10   12 ar   
    21   10   26 1    
    22   11   12 ar   
    23   11   27 1    
    24   12   28 1    
    25   13   24 am   BACKBONE|DICT|INTERRES
    26   13   25 2    
    27   14   15 1    
    28   14   34 1    
    29   14   35 1    
    30   15   16 1    
    31   15   36 1    
    32   15   37 1    
    33   16   23 1    
    34   16   38 1    
    35   16   39 1    
    36   17   23 1    
    37   17   40 1    
    38   17   41 1    
    39   17   42 1    
    40   18   26 1    
    41   18   43 1    
    42   18   44 1    
    43   18   45 1    
    44   19   27 1    
    45   19   46 1    
    46   19   47 1    
    47   19   48 1    
    48   20   28 1    
    49   20   49 1    
    50   20   50 1    
    51   20   51 1    
    52   21   22 1    
    53   21   52 1    
    54   21   53 1    
    55   22   24 1    
    56   22   54 1    
    57   22   55 1    
    58   24   56 1    
@<TRIPOS>SUBSTRUCTURE
     1 UNK         1 GROUP             0       ****    0 ROOT    
@<TRIPOS>MOLECULE
ZINC13136643_109
48   50    1
SMALL
USER_CHARGES


@<TRIPOS>ATOM
      1 C1         -5.6350  -11.2476   34.7970 C.ar      1 UNK        -0.1150 
      2 C2         -6.5907  -10.3948   35.3797 C.ar      1 UNK        -0.1150 
      3 C3         -5.0784  -12.2974   35.5513 C.ar      1 UNK        -0.1150 
      4 C4         -6.9878  -10.5906   36.7163 C.ar      1 UNK        -0.1150 
      5 C5         -5.4741  -12.4933   36.8885 C.ar      1 UNK        -0.1150 
      6 C6         -8.4918   -5.0151   39.7053 C.ar      1 UNK        -0.1150 
      7 C7         -9.4677   -7.0685   38.8439 C.ar      1 UNK        -0.1150 
      8 C8         -8.8753   -6.3541   39.9057 C.ar      1 UNK        -0.1150 
      9 C9         -6.4297  -11.6385   37.4885 C.ar      1 UNK        -0.0383 
     10 C10        -8.6493   -4.3841   38.4462 C.ar      1 UNK         0.0850 
     11 C11        -9.6263   -6.4689   37.5733 C.ar      1 UNK         0.0850 
     12 C12        -9.1951   -5.1373   37.3647 C.ar      1 UNK         0.0850 
     13 C13        -7.6264  -11.1266   40.9104 C.2       1 UNK        -0.1722 
     14 C14        -7.0017  -10.7821   39.7576 C.2       1 UNK         0.0468 
     15 C15        -7.2274  -13.0836   39.3388 C.2       1 UNK         0.4088 
     16 C16        -7.7863  -10.3088   42.1102 C.2       1 UNK         0.3879 
     17 C17        -8.6759   -6.9913   41.2494 C.2       1 UNK         0.6150 
     18 C18        -7.8594   -2.2861   39.3481 C.3       1 UNK         0.1100 
     19 C19       -10.7643   -8.4037   36.6915 C.3       1 UNK         0.1100 
     20 C20        -8.4933   -3.6671   35.5809 C.3       1 UNK         0.1100 
     21 N21        -8.0281   -9.0532   42.2709 N.2       1 UNK        -0.2833 
     22 N22        -6.8359  -11.8395   38.8457 N.am      1 UNK         0.2521 
     23 N23        -8.3477   -8.2882   41.2034 N.am      1 UNK        -0.2934 
     24 O24        -7.1867  -14.1856   38.7932 O.2       1 UNK        -0.4970 
     25 O25        -8.7474   -6.3352   42.2865 O.2       1 UNK        -0.5000 
     26 O26        -8.3106   -3.0601   38.2456 O.3       1 UNK        -0.2850 
     27 O27       -10.1764   -7.1272   36.4914 O.3       1 UNK        -0.2850 
     28 O28        -9.3846   -4.6502   36.0856 O.3       1 UNK        -0.2850 
     29 S29        -7.8464  -12.8627   41.0010 S.3       1 UNK        -0.0599 
     30 Cl30       -6.2105   -9.2650   39.4534 Cl        1 UNK        -0.1200 
     31 H31        -5.3313  -11.0988   33.7705 H         1 UNK         0.1150 
     32 H32        -7.0208   -9.5899   34.8003 H         1 UNK         0.1150 
     33 H33        -4.3483  -12.9562   35.1032 H         1 UNK         0.1150 
     34 H34        -7.7272   -9.9274   37.1401 H         1 UNK         0.1150 
     35 H35        -5.0388  -13.3086   37.4499 H         1 UNK         0.1150 
     36 H36        -8.0717   -4.4891   40.5496 H         1 UNK         0.1150 
     37 H37        -9.7994   -8.0798   39.0169 H         1 UNK         0.1150 
     38 H38        -7.8001  -10.9300   43.0070 H         1 UNK         0.0685 
     39 H39        -7.6935   -1.2600   39.0203 H         1 UNK         0.0300 
     40 H40        -6.9132   -2.6627   39.7392 H         1 UNK         0.0300 
     41 H41        -8.5996   -2.2584   40.1492 H         1 UNK         0.0300 
     42 H42       -11.2144   -8.7411   35.7579 H         1 UNK         0.0300 
     43 H43       -11.5545   -8.3663   37.4428 H         1 UNK         0.0300 
     44 H44       -10.0203   -9.1453   36.9833 H         1 UNK         0.0300 
     45 H45        -8.5064   -3.7018   34.4917 H         1 UNK         0.0300 
     46 H46        -7.4647   -3.8404   35.9012 H         1 UNK         0.0300 
     47 H47        -8.8038   -2.6642   35.8746 H         1 UNK         0.0300 
     48 H48        -8.2440   -8.7285   40.3026 H         1 UNK         0.3000 
@<TRIPOS>BOND
     1    1    2 ar   
     2    1    3 ar   
     3    1   31 1    
     4    2    4 ar   
     5    2   32 1    
     6    3    5 ar   
     7    3   33 1    
     8    4    9 ar   
     9    4   34 1    
    10    5    9 ar   
    11    5   35 1    
    12    6    8 ar   
    13    6   10 ar   
    14    6   36 1    
    15    7    8 ar   
    16    7   11 ar   
    17    7   37 1    
    18    8   17 1    
    19    9   22 1    
    20   10   12 ar   
    21   10   26 1    
    22   11   12 ar   
    23   11   27 1    
    24   12   28 1    
    25   13   14 2    
    26   13   16 1    
    27   13   29 1    
    28   14   22 1    
    29   14   30 1    
    30   15   22 am   BACKBONE|DICT|INTERRES
    31   15   24 2    
    32   15   29 1    
    33   16   21 2    
    34   16   38 1    
    35   17   23 am   BACKBONE|DICT|INTERRES
    36   17   25 2    
    37   18   26 1    
    38   18   39 1    
    39   18   40 1    
    40   18   41 1    
    41   19   27 1    
    42   19   42 1    
    43   19   43 1    
    44   19   44 1    
    45   20   28 1    
    46   20   45 1    
    47   20   46 1    
    48   20   47 1    
    49   21   23 1    
    50   23   48 1    
@<TRIPOS>SUBSTRUCTURE
     1 UNK         1 GROUP             0       ****    0 ROOT    
@<TRIPOS>MOLECULE
ZINC13359223_9
47   49    1
SMALL
USER_CHARGES


@<TRIPOS>ATOM
      1 C1        -14.8396  -13.3723   37.8300 C.ar      1 UNK        -0.1150 
      2 C2        -16.7498  -14.8593   37.6959 C.ar      1 UNK        -0.1150 
      3 C3        -11.4834  -22.1032   37.2150 C.ar      1 UNK        -0.3200 
      4 C4        -13.5498  -17.9729   37.5387 C.ar      1 UNK        -0.6890 
      5 C5        -15.6152  -18.7422   39.0278 C.ar      1 UNK         0.8740 
      6 C6        -15.3502  -14.6780   37.6979 C.ar      1 UNK         0.2000 
      7 C7        -15.6903  -12.2600   37.9819 C.ar      1 UNK         0.0850 
      8 C8        -17.6284  -13.7698   37.8462 C.ar      1 UNK         0.0850 
      9 C9        -17.0996  -12.4545   37.9570 C.ar      1 UNK         0.0850 
     10 C10       -10.7874  -20.9232   36.8473 C.ar      1 UNK         0.2230 
     11 C11       -12.6854  -21.6552   37.6908 C.ar      1 UNK         0.0560 
     12 C12       -13.6812  -19.3087   37.9654 C.ar      1 UNK         0.7865 
     13 C13       -14.5433  -17.0777   37.9214 C.ar      1 UNK         0.8640 
     14 C14        -9.4154  -20.7905   36.2607 C.3       1 UNK        -0.0650 
     15 C15       -13.8266  -22.4689   38.2128 C.3       1 UNK        -0.0650 
     16 C16       -15.6896  -10.0390   38.9003 C.3       1 UNK         0.1100 
     17 C17       -19.7955  -13.3645   38.7660 C.3       1 UNK         0.1100 
     18 C18       -18.3505  -10.9758   36.6750 C.3       1 UNK         0.1100 
     19 N19       -14.7336  -19.6778   38.7171 N.ar      1 UNK        -0.8390 
     20 N20       -15.5775  -17.4684   38.6713 N.ar      1 UNK        -0.8390 
     21 N21       -11.4991  -19.8379   37.0766 N.2       1 UNK        -0.5310 
     22 N22       -12.6786  -20.2630   37.6015 N.pl3     1 UNK         0.0695 
     23 N23       -14.4384  -15.7356   37.5345 N.pl3     1 UNK        -0.7800 
     24 O24       -15.0630  -11.0374   38.1070 O.3       1 UNK        -0.2850 
     25 O25       -18.9755  -14.0613   37.8373 O.3       1 UNK        -0.2850 
     26 O26       -17.9459  -11.3760   37.9751 O.3       1 UNK        -0.2850 
     27 H27       -13.7729  -13.2052   37.8324 H         1 UNK         0.1150 
     28 H28       -17.1757  -15.8439   37.5781 H         1 UNK         0.1150 
     29 H29       -11.1505  -23.1275   37.1391 H         1 UNK         0.1500 
     30 H30       -12.7067  -17.6718   36.9366 H         1 UNK         0.1970 
     31 H31       -16.4551  -19.0514   39.6317 H         1 UNK        -0.0320 
     32 H32        -9.4537  -20.3058   35.2851 H         1 UNK         0.0600 
     33 H33        -8.7713  -20.1925   36.9054 H         1 UNK         0.0600 
     34 H34        -8.9451  -21.7650   36.1309 H         1 UNK         0.0600 
     35 H35       -13.9921  -22.2703   39.2720 H         1 UNK         0.0600 
     36 H36       -14.7473  -22.2416   37.6751 H         1 UNK         0.0600 
     37 H37       -13.6310  -23.5350   38.1007 H         1 UNK         0.0600 
     38 H38       -16.3984   -9.4540   38.3142 H         1 UNK         0.0300 
     39 H39       -14.9306   -9.3497   39.2700 H         1 UNK         0.0300 
     40 H40       -16.1990  -10.4610   39.7683 H         1 UNK         0.0300 
     41 H41       -19.2631  -13.1143   39.6853 H         1 UNK         0.0300 
     42 H42       -20.6409  -13.9960   39.0381 H         1 UNK         0.0300 
     43 H43       -20.2008  -12.4525   38.3286 H         1 UNK         0.0300 
     44 H44       -19.0210  -10.1197   36.7489 H         1 UNK         0.0300 
     45 H45       -18.8824  -11.7748   36.1562 H         1 UNK         0.0300 
     46 H46       -17.4914  -10.6789   36.0711 H         1 UNK         0.0300 
     47 H47       -13.5327  -15.4778   37.1782 H         1 UNK         0.3800 
@<TRIPOS>BOND
     1    1    6 ar   
     2    1    7 ar   
     3    1   27 1    
     4    2    6 ar   
     5    2    8 ar   
     6    2   28 1    
     7    3   10 ar   
     8    3   11 ar   
     9    3   29 1    
    10    4   12 ar   
    11    4   13 ar   
    12    4   30 1    
    13    5   19 ar   
    14    5   20 ar   
    15    5   31 1    
    16    6   23 1    
    17    7    9 ar   
    18    7   24 1    
    19    8    9 ar   
    20    8   25 1    
    21    9   26 1    
    22   10   14 1    
    23   10   21 ar   
    24   11   15 1    
    25   11   22 ar   
    26   12   19 ar   
    27   12   22 1    
    28   13   20 ar   
    29   13   23 1    
    30   14   32 1    
    31   14   33 1    
    32   14   34 1    
    33   15   35 1    
    34   15   36 1    
    35   15   37 1    
    36   16   24 1    
    37   16   38 1    
    38   16   39 1    
    39   16   40 1    
    40   17   25 1    
    41   17   41 1    
    42   17   42 1    
    43   17   43 1    
    44   18   26 1    
    45   18   44 1    
    46   18   45 1    
    47   18   46 1    
    48   21   22 ar   
    49   23   47 1    
@<TRIPOS>SUBSTRUCTURE
     1 UNK         1 GROUP             0       ****    0 ROOT    
@<TRIPOS>MOLECULE
ZINC13566793_157
47   50    1
SMALL
USER_CHARGES


@<TRIPOS>ATOM
      1 C1         -4.7678  -10.9244   34.9601 C.ar      1 UNK        -0.1150 
      2 C2         -4.0604  -11.6669   35.9244 C.ar      1 UNK        -0.1150 
      3 C3         -6.0578  -10.4429   35.2523 C.ar      1 UNK        -0.1150 
      4 C4         -8.9616   -6.9931   38.4579 C.ar      1 UNK        -0.1150 
      5 C5         -4.6421  -11.9282   37.1803 C.ar      1 UNK        -0.1150 
      6 C6         -6.6401  -10.7048   36.5074 C.ar      1 UNK        -0.1150 
      7 C7         -9.5106   -6.2034   37.4341 C.ar      1 UNK        -0.1150 
      8 C8         -7.6250   -5.0961   39.1727 C.ar      1 UNK        -0.1150 
      9 C9         -8.0090   -6.4422   39.3352 C.ar      1 UNK         0.0000 
     10 C10        -5.9365  -11.4491   37.4819 C.ar      1 UNK        -0.1150 
     11 C11        -9.1313   -4.8577   37.2571 C.ar      1 UNK         0.0850 
     12 C12        -8.1670   -4.2833   38.1421 C.ar      1 UNK         0.0850 
     13 C13        -7.4109   -7.2340   40.4114 C.ar      1 UNK         0.4100 
     14 C14        -6.5041   -8.8669   41.5978 C.ar      1 UNK         0.4175 
     15 C15        -6.6157  -10.5144   39.7422 C.2       1 UNK         0.1303 
     16 C16        -7.9172  -13.7548   37.9673 C.3       1 UNK        -0.1800 
     17 C17        -9.5098   -2.8710   35.9006 C.3       1 UNK         0.1100 
     18 C18        -6.8331   -2.4050   38.8792 C.3       1 UNK         0.1100 
     19 C19        -7.9329  -12.4387   38.7614 C.3       1 UNK        -0.1200 
     20 C20        -6.5585  -11.7419   38.8467 C.3       1 UNK         0.1700 
     21 N21        -7.1094   -6.7657   41.6361 N.2       1 UNK        -0.3633 
     22 N22        -6.5390   -7.8234   42.3881 N.2       1 UNK        -0.3633 
     23 N23        -7.1302   -9.3393   39.3540 N.2       1 UNK        -0.2500 
     24 N24        -7.0331   -8.5121   40.4121 N.pl3     1 UNK        -0.0934 
     25 O25        -9.7691   -4.2322   36.2022 O.3       1 UNK        -0.2850 
     26 O26        -7.7811   -2.9667   37.9821 O.3       1 UNK        -0.2850 
     27 S27        -6.0457  -10.5529   41.4499 S.3       1 UNK        -0.0028 
     28 H28        -4.3208  -10.7224   33.9972 H         1 UNK         0.1150 
     29 H29        -3.0697  -12.0357   35.7002 H         1 UNK         0.1150 
     30 H30        -6.6005   -9.8695   34.5144 H         1 UNK         0.1150 
     31 H31        -9.2815   -8.0183   38.5693 H         1 UNK         0.1150 
     32 H32        -4.0851  -12.4997   37.9087 H         1 UNK         0.1150 
     33 H33        -7.6282  -10.3231   36.7207 H         1 UNK         0.1150 
     34 H34       -10.2421   -6.6345   36.7667 H         1 UNK         0.1150 
     35 H35        -6.8957   -4.7110   39.8683 H         1 UNK         0.1150 
     36 H36        -7.2066  -14.4651   38.3906 H         1 UNK         0.0600 
     37 H37        -8.9010  -14.2246   37.9750 H         1 UNK         0.0600 
     38 H38        -7.6422  -13.5897   36.9248 H         1 UNK         0.0600 
     39 H39       -10.1203   -2.5748   35.0479 H         1 UNK         0.0300 
     40 H40        -8.4673   -2.7147   35.6213 H         1 UNK         0.0300 
     41 H41        -9.7767   -2.2171   36.7313 H         1 UNK         0.0300 
     42 H42        -6.6538   -1.3653   38.6057 H         1 UNK         0.0300 
     43 H43        -5.8761   -2.9262   38.8282 H         1 UNK         0.0300 
     44 H44        -7.1995   -2.4152   39.9067 H         1 UNK         0.0300 
     45 H45        -8.6646  -11.7615   38.3193 H         1 UNK         0.0600 
     46 H46        -8.2893  -12.6451   39.7712 H         1 UNK         0.0600 
     47 H47        -5.8898  -12.4381   39.3543 H         1 UNK         0.0600 
@<TRIPOS>BOND
     1    1    2 ar   
     2    1    3 ar   
     3    1   28 1    
     4    2    5 ar   
     5    2   29 1    
     6    3    6 ar   
     7    3   30 1    
     8    4    7 ar   
     9    4    9 ar   
    10    4   31 1    
    11    5   10 ar   
    12    5   32 1    
    13    6   10 ar   
    14    6   33 1    
    15    7   11 ar   
    16    7   34 1    
    17    8    9 ar   
    18    8   12 ar   
    19    8   35 1    
    20    9   13 1    
    21   10   20 1    
    22   11   12 ar   
    23   11   25 1    
    24   12   26 1    
    25   13   21 ar   
    26   13   24 ar   
    27   14   22 ar   
    28   14   24 ar   
    29   14   27 1    
    30   15   20 1    
    31   15   23 2    
    32   15   27 1    
    33   16   19 1    
    34   16   36 1    
    35   16   37 1    
    36   16   38 1    
    37   17   25 1    
    38   17   39 1    
    39   17   40 1    
    40   17   41 1    
    41   18   26 1    
    42   18   42 1    
    43   18   43 1    
    44   18   44 1    
    45   19   20 1    
    46   19   45 1    
    47   19   46 1    
    48   20   47 1    
    49   21   22 ar   
    50   23   24 1    
@<TRIPOS>SUBSTRUCTURE
     1 UNK         1 GROUP             0       ****    0 ROOT    
@<TRIPOS>MOLECULE
ZINC13624851_112
48   50    1
SMALL
USER_CHARGES


@<TRIPOS>ATOM
      1 C1        -10.5666  -22.1027   37.8094 C.ar      1 UNK        -0.3541 
      2 C2         -9.4654  -21.2404   37.9730 C.ar      1 UNK        -0.0888 
      3 C3        -10.9844  -19.3527   38.2894 C.ar      1 UNK        -0.2243 
      4 C4        -16.4730  -14.2758   38.2207 C.ar      1 UNK        -0.1150 
      5 C5        -14.4359  -12.9596   38.0925 C.ar      1 UNK        -0.1150 
      6 C6        -14.1131  -21.2092   37.9273 C.ar      1 UNK        -0.1072 
      7 C7        -12.1118  -20.1917   38.1290 C.ar      1 UNK         0.1233 
      8 C8        -15.0694  -14.2167   38.0940 C.ar      1 UNK        -0.1150 
      9 C9        -13.5359  -19.9843   38.1468 C.ar      1 UNK        -0.1749 
     10 C10       -11.8674  -21.5758   37.8883 C.ar      1 UNK         0.2860 
     11 C11       -17.2474  -13.1037   38.3082 C.ar      1 UNK         0.0850 
     12 C12       -15.1818  -11.7704   38.1841 C.ar      1 UNK         0.0850 
     13 C13       -16.6017  -11.8357   38.2491 C.ar      1 UNK         0.0850 
     14 C14        -9.6762  -19.8691   38.2122 C.ar      1 UNK         0.1467 
     15 C15       -14.2447  -15.4661   38.0145 C.2       1 UNK         0.6150 
     16 C16       -19.3851  -12.3297   39.0960 C.3       1 UNK         0.1100 
     17 C17       -14.8796   -9.5766   39.0732 C.3       1 UNK         0.1100 
     18 C18       -17.4987  -10.1844   36.8816 C.3       1 UNK         0.1100 
     19 C19       -14.2464  -18.6849   38.3637 C.3       1 UNK        -0.0641 
     20 C20       -14.1638  -17.7748   37.1271 C.3       1 UNK         0.0800 
     21 N21       -13.1131  -22.1556   37.7723 N.pl3     1 UNK        -0.4786 
     22 N22       -14.8096  -16.4894   37.3619 N.am      1 UNK        -0.5000 
     23 O23       -13.1057  -15.5094   38.4735 O.2       1 UNK        -0.5000 
     24 O24       -18.6083  -13.3021   38.4115 O.3       1 UNK        -0.2850 
     25 O25       -14.4631  -10.5960   38.1739 O.3       1 UNK        -0.2850 
     26 O26       -17.3427  -10.6828   38.2015 O.3       1 UNK        -0.2850 
     27 F27        -8.6160  -19.0440   38.3682 F         1 UNK        -0.2200 
     28 H28       -10.4079  -23.1539   37.6265 H         1 UNK         0.1796 
     29 H29        -8.4560  -21.6214   37.9169 H         1 UNK         0.1359 
     30 H30       -11.1263  -18.2985   38.4753 H         1 UNK         0.1699 
     31 H31       -16.9782  -15.2290   38.2672 H         1 UNK         0.1150 
     32 H32       -13.3579  -12.9044   38.0276 H         1 UNK         0.1150 
     33 H33       -15.1587  -21.4815   37.8706 H         1 UNK         0.1929 
     34 H34       -19.6740  -11.5154   38.4316 H         1 UNK         0.0300 
     35 H35       -18.8645  -11.9233   39.9647 H         1 UNK         0.0300 
     36 H36       -20.3033  -12.7952   39.4537 H         1 UNK         0.0300 
     37 H37       -15.5890   -8.8981   38.6005 H         1 UNK         0.0300 
     38 H38       -14.0128   -8.9852   39.3674 H         1 UNK         0.0300 
     39 H39       -15.3252   -9.9808   39.9838 H         1 UNK         0.0300 
     40 H40       -18.0898   -9.2692   36.9041 H         1 UNK         0.0300 
     41 H41       -18.0199  -10.9057   36.2504 H         1 UNK         0.0300 
     42 H42       -16.5374   -9.9510   36.4215 H         1 UNK         0.0300 
     43 H43       -13.8072  -18.1769   39.2239 H         1 UNK         0.0600 
     44 H44       -15.2904  -18.8634   38.6232 H         1 UNK         0.0600 
     45 H45       -13.1216  -17.6129   36.8432 H         1 UNK         0.0600 
     46 H46       -14.6430  -18.2577   36.2749 H         1 UNK         0.0600 
     47 H47       -13.2927  -23.1345   37.6036 H         1 UNK         0.3577 
     48 H48       -15.7257  -16.3377   36.9712 H         1 UNK         0.3000 
@<TRIPOS>BOND
     1    1    2 ar   
     2    1   10 ar   
     3    1   28 1    
     4    2   14 ar   
     5    2   29 1    
     6    3    7 ar   
     7    3   14 ar   
     8    3   30 1    
     9    4    8 ar   
    10    4   11 ar   
    11    4   31 1    
    12    5    8 ar   
    13    5   12 ar   
    14    5   32 1    
    15    6    9 ar   
    16    6   21 ar   
    17    6   33 1    
    18    7    9 ar   
    19    7   10 ar   
    20    8   15 1    
    21    9   19 1    
    22   10   21 ar   
    23   11   13 ar   
    24   11   24 1    
    25   12   13 ar   
    26   12   25 1    
    27   13   26 1    
    28   14   27 1    
    29   15   22 am   BACKBONE|DICT|INTERRES
    30   15   23 2    
    31   16   24 1    
    32   16   34 1    
    33   16   35 1    
    34   16   36 1    
    35   17   25 1    
    36   17   37 1    
    37   17   38 1    
    38   17   39 1    
    39   18   26 1    
    40   18   40 1    
    41   18   41 1    
    42   18   42 1    
    43   19   20 1    
    44   19   43 1    
    45   19   44 1    
    46   20   22 1    
    47   20   45 1    
    48   20   46 1    
    49   21   47 1    
    50   22   48 1    
@<TRIPOS>SUBSTRUCTURE
     1 UNK         1 GROUP             0       ****    0 ROOT    
@<TRIPOS>MOLECULE
ZINC13687806_230
45   49    1
SMALL
USER_CHARGES


@<TRIPOS>ATOM
      1 C1         -4.4220   -9.1855   35.0703 C.ar      1 UNK        -0.2222 
      2 C2         -4.5148  -10.2005   34.1000 C.ar      1 UNK        -0.0888 
      3 C3         -4.9682   -9.3792   36.3558 C.ar      1 UNK        -0.2243 
      4 C4         -8.3682   -4.9841   39.9948 C.ar      1 UNK        -0.1150 
      5 C5         -5.1510  -11.4138   34.4191 C.ar      1 UNK        -0.3541 
      6 C6         -9.4009   -4.5419   39.1516 C.ar      1 UNK        -0.1150 
      7 C7         -7.3831   -6.1752   38.1200 C.ar      1 UNK        -0.1150 
      8 C8         -6.6942  -12.3523   37.5921 C.ar      1 UNK        -0.1072 
      9 C9         -5.6239  -10.5848   36.7092 C.ar      1 UNK         0.1233 
     10 C10        -6.2814  -11.0778   37.8997 C.ar      1 UNK        -0.1190 
     11 C11        -7.3514   -5.8057   39.4797 C.ar      1 UNK        -0.1150 
     12 C12        -5.6902  -11.5953   35.7045 C.ar      1 UNK         0.2860 
     13 C13        -9.4549   -4.9131   37.7927 C.ar      1 UNK         0.0850 
     14 C14        -8.4286   -5.7515   37.2580 C.ar      1 UNK         0.0850 
     15 C15        -6.5895   -7.5663   41.1028 C.ar      1 UNK         0.2950 
     16 C16        -7.0051   -9.6968   41.4825 C.ar      1 UNK         0.4175 
     17 C17        -6.4814  -10.3789   39.1702 C.2       1 UNK         0.2453 
     18 C18       -10.8206   -4.7971   35.7813 C.3       1 UNK         0.1100 
     19 C19        -7.5467   -7.1034   35.4582 C.3       1 UNK         0.1100 
     20 C20        -6.2351   -6.2993   40.3871 C.3       1 UNK         0.1100 
     21 N21        -6.9557   -7.6949   42.3869 N.2       1 UNK        -0.3633 
     22 N22        -7.2191   -9.0721   42.6166 N.2       1 UNK        -0.3633 
     23 N23        -6.2942   -9.0616   39.2955 N.2       1 UNK        -0.2500 
     24 N24        -6.3472  -12.6552   36.2868 N.pl3     1 UNK        -0.4786 
     25 N25        -6.6098   -8.7826   40.5732 N.pl3     1 UNK        -0.0934 
     26 O26       -10.5435   -4.3984   37.1138 O.3       1 UNK        -0.2850 
     27 O27        -8.4623   -6.1235   35.9283 O.3       1 UNK        -0.2850 
     28 S28        -7.0248  -11.2446   40.6505 S.3       1 UNK        -0.0028 
     29 H29        -3.9256   -8.2555   34.8284 H         1 UNK         0.1489 
     30 H30        -4.0935  -10.0497   33.1154 H         1 UNK         0.1359 
     31 H31        -4.8824   -8.5919   37.0884 H         1 UNK         0.1699 
     32 H32        -8.3654   -4.6954   41.0366 H         1 UNK         0.1150 
     33 H33        -5.2197  -12.1976   33.6802 H         1 UNK         0.1796 
     34 H34       -10.1793   -3.9112   39.5550 H         1 UNK         0.1150 
     35 H35        -6.5847   -6.8016   37.7569 H         1 UNK         0.1150 
     36 H36        -7.2242  -13.0684   38.2057 H         1 UNK         0.1929 
     37 H37       -11.7667   -4.3557   35.4693 H         1 UNK         0.0300 
     38 H38       -10.9254   -5.8794   35.6975 H         1 UNK         0.0300 
     39 H39       -10.0557   -4.4417   35.0906 H         1 UNK         0.0300 
     40 H40        -7.7796   -7.3453   34.4214 H         1 UNK         0.0300 
     41 H41        -7.6185   -8.0278   36.0335 H         1 UNK         0.0300 
     42 H42        -6.5201   -6.7364   35.4843 H         1 UNK         0.0300 
     43 H43        -5.3239   -6.4584   39.8102 H         1 UNK         0.0600 
     44 H44        -6.0015   -5.5336   41.1274 H         1 UNK         0.0600 
     45 H45        -6.5565  -13.5355   35.8384 H         1 UNK         0.3577 
@<TRIPOS>BOND
     1    1    2 ar   
     2    1    3 ar   
     3    1   29 1    
     4    2    5 ar   
     5    2   30 1    
     6    3    9 ar   
     7    3   31 1    
     8    4    6 ar   
     9    4   11 ar   
    10    4   32 1    
    11    5   12 ar   
    12    5   33 1    
    13    6   13 ar   
    14    6   34 1    
    15    7   11 ar   
    16    7   14 ar   
    17    7   35 1    
    18    8   10 ar   
    19    8   24 ar   
    20    8   36 1    
    21    9   10 ar   
    22    9   12 ar   
    23   10   17 1    
    24   11   20 1    
    25   12   24 ar   
    26   13   14 ar   
    27   13   26 1    
    28   14   27 1    
    29   15   20 1    
    30   15   21 ar   
    31   15   25 ar   
    32   16   22 ar   
    33   16   25 ar   
    34   16   28 1    
    35   17   23 2    
    36   17   28 1    
    37   18   26 1    
    38   18   37 1    
    39   18   38 1    
    40   18   39 1    
    41   19   27 1    
    42   19   40 1    
    43   19   41 1    
    44   19   42 1    
    45   20   43 1    
    46   20   44 1    
    47   21   22 ar   
    48   23   25 1    
    49   24   45 1    
@<TRIPOS>SUBSTRUCTURE
     1 UNK         1 GROUP             0       ****    0 ROOT    
@<TRIPOS>MOLECULE
ZINC13692128_10
45   48    1
SMALL
USER_CHARGES


@<TRIPOS>ATOM
      1 C1         -7.5269   -4.7659   39.6812 C.ar      1 UNK        -0.1150 
      2 C2         -6.2771  -12.2951   36.3700 C.ar      1 UNK        -0.3541 
      3 C3         -8.0298   -4.0185   38.6026 C.ar      1 UNK        -0.1150 
      4 C4         -5.8826  -11.7791   35.1204 C.ar      1 UNK        -0.0888 
      5 C5         -5.3484   -9.6361   36.1662 C.ar      1 UNK        -0.2243 
      6 C6         -8.1462   -6.8082   38.5207 C.ar      1 UNK        -0.1150 
      7 C7         -5.7354  -10.1234   37.4357 C.ar      1 UNK         0.1233 
      8 C8         -7.5606   -6.1705   39.6356 C.ar      1 UNK        -0.1150 
      9 C9         -5.7953   -9.5716   38.7602 C.ar      1 UNK        -0.1749 
     10 C10        -6.2035  -11.4722   37.5074 C.ar      1 UNK         0.2860 
     11 C11        -8.5856   -4.6432   37.4676 C.ar      1 UNK         0.0850 
     12 C12        -8.6448   -6.0702   37.4161 C.ar      1 UNK         0.0850 
     13 C13        -5.4215  -10.4527   35.0213 C.ar      1 UNK         0.1467 
     14 C14        -6.2733  -10.5536   39.5805 C.ar      1 UNK        -0.0293 
     15 C15        -7.0443   -6.9727   40.7979 C.2       1 UNK         0.6150 
     16 C16        -5.4452   -8.2091   39.2839 C.3       1 UNK         0.0059 
     17 C17        -6.5111  -10.3872   41.0485 C.3       1 UNK        -0.0050 
     18 C18        -5.9205   -9.0429   41.5467 C.3       1 UNK        -0.0500 
     19 C19        -9.7105   -4.2254   35.3496 C.3       1 UNK         0.1100 
     20 C20        -9.1216   -8.1193   36.2205 C.3       1 UNK         0.1100 
     21 N21        -6.5223  -11.6912   38.8348 N.pl3     1 UNK        -0.4786 
     22 N22        -6.1622   -7.9742   40.5551 N.am      1 UNK        -0.1400 
     23 O23        -7.4599   -6.7124   41.9267 O.2       1 UNK        -0.5000 
     24 O24        -9.0206   -3.7593   36.4979 O.3       1 UNK        -0.2850 
     25 O25        -9.1749   -6.7017   36.3082 O.3       1 UNK        -0.2850 
     26 F26        -5.0489   -9.9582   33.8191 F         1 UNK        -0.2200 
     27 H27        -7.1145   -4.2605   40.5433 H         1 UNK         0.1150 
     28 H28        -6.6318  -13.3113   36.4472 H         1 UNK         0.1796 
     29 H29        -7.9933   -2.9398   38.6435 H         1 UNK         0.1150 
     30 H30        -5.9313  -12.3930   34.2324 H         1 UNK         0.1359 
     31 H31        -4.9950   -8.6219   36.0667 H         1 UNK         0.1699 
     32 H32        -8.1915   -7.8862   38.5363 H         1 UNK         0.1150 
     33 H33        -4.3750   -8.1612   39.4886 H         1 UNK         0.0600 
     34 H34        -5.6146   -7.4429   38.5286 H         1 UNK         0.0600 
     35 H35        -7.5848  -10.4015   41.2405 H         1 UNK         0.0600 
     36 H36        -6.0800  -11.2182   41.6078 H         1 UNK         0.0600 
     37 H37        -6.3037   -8.8067   42.5410 H         1 UNK         0.0600 
     38 H38        -4.8411   -9.1453   41.6644 H         1 UNK         0.0600 
     39 H39       -10.0333   -3.3691   34.7578 H         1 UNK         0.0300 
     40 H40       -10.6048   -4.7885   35.6187 H         1 UNK         0.0300 
     41 H41        -9.0652   -4.8316   34.7132 H         1 UNK         0.0300 
     42 H42        -9.5225   -8.4333   35.2572 H         1 UNK         0.0300 
     43 H43        -9.7259   -8.5914   36.9959 H         1 UNK         0.0300 
     44 H44        -8.0971   -8.4878   36.2832 H         1 UNK         0.0300 
     45 H45        -6.8846  -12.5490   39.2244 H         1 UNK         0.3577 
@<TRIPOS>BOND
     1    1    3 ar   
     2    1    8 ar   
     3    1   27 1    
     4    2    4 ar   
     5    2   10 ar   
     6    2   28 1    
     7    3   11 ar   
     8    3   29 1    
     9    4   13 ar   
    10    4   30 1    
    11    5    7 ar   
    12    5   13 ar   
    13    5   31 1    
    14    6    8 ar   
    15    6   12 ar   
    16    6   32 1    
    17    7    9 ar   
    18    7   10 ar   
    19    8   15 1    
    20    9   14 ar   
    21    9   16 1    
    22   10   21 ar   
    23   11   12 ar   
    24   11   24 1    
    25   12   25 1    
    26   13   26 1    
    27   14   17 1    
    28   14   21 ar   
    29   15   22 am   BACKBONE|DICT|INTERRES
    30   15   23 2    
    31   16   22 1    
    32   16   33 1    
    33   16   34 1    
    34   17   18 1    
    35   17   35 1    
    36   17   36 1    
    37   18   22 1    
    38   18   37 1    
    39   18   38 1    
    40   19   24 1    
    41   19   39 1    
    42   19   40 1    
    43   19   41 1    
    44   20   25 1    
    45   20   42 1    
    46   20   43 1    
    47   20   44 1    
    48   21   45 1    
@<TRIPOS>SUBSTRUCTURE
     1 UNK         1 GROUP             0       ****    0 ROOT    
@<TRIPOS>MOLECULE
ZINC13725570_192
47   49    1
SMALL
USER_CHARGES


@<TRIPOS>ATOM
      1 C1         -6.3168  -10.4853   35.4186 C.ar      1 UNK        -0.1150 
      2 C2         -6.1131  -11.8540   35.1618 C.ar      1 UNK        -0.1150 
      3 C3         -5.9168   -9.9374   36.6526 C.ar      1 UNK        -0.1150 
      4 C4         -5.5142  -12.6709   36.1403 C.ar      1 UNK        -0.1150 
      5 C5         -7.9461   -6.2256   37.9482 C.ar      1 UNK        -0.1150 
      6 C6         -7.8761   -4.5236   39.6919 C.ar      1 UNK        -0.1150 
      7 C7         -3.7114   -9.1247   40.7854 C.2       1 UNK        -0.3376 
      8 C8         -5.3088  -10.7491   37.6352 C.ar      1 UNK         0.0000 
      9 C9         -7.6078   -5.8437   39.2618 C.ar      1 UNK         0.0850 
     10 C10        -8.5325   -5.3027   37.0499 C.ar      1 UNK         0.0850 
     11 C11        -8.4631   -3.5833   38.8098 C.ar      1 UNK         0.0850 
     12 C12        -8.7816   -3.9851   37.4929 C.ar      1 UNK         0.0850 
     13 C13        -5.1123  -12.1280   37.3775 C.ar      1 UNK         0.1800 
     14 C14        -5.0618   -8.8722   40.7940 C.2       1 UNK         0.1693 
     15 C15        -4.9102  -10.1271   38.8907 C.2       1 UNK         0.3009 
     16 C16        -6.3784   -6.7576   41.2596 C.2       1 UNK         0.5000 
     17 C17        -8.6512   -6.9321   35.2825 C.3       1 UNK         0.1100 
     18 C18        -8.4473   -1.8478   40.4765 C.3       1 UNK         0.1100 
     19 C19        -8.4108   -2.3252   35.9087 C.3       1 UNK         0.1100 
     20 C20        -5.8298   -8.0771   41.8227 C.3       1 UNK        -0.0050 
     21 N21        -5.7300   -9.4575   39.7079 N.2       1 UNK        -0.4803 
     22 N22        -7.0245   -6.8462   40.0834 N.am      1 UNK        -0.3850 
     23 O23        -6.2269   -5.7182   41.8994 O.2       1 UNK        -0.5000 
     24 O24        -8.8755   -5.6104   35.7484 O.3       1 UNK        -0.2850 
     25 O25        -8.7474   -2.2775   39.1568 O.3       1 UNK        -0.2850 
     26 O26        -9.3599   -3.0879   36.6333 O.3       1 UNK        -0.2850 
     27 S27        -3.2282  -10.0797   39.4086 S.3       1 UNK         0.0010 
     28 Cl28       -4.4131  -13.1854   38.5530 Cl        1 UNK        -0.1800 
     29 H29        -6.7768   -9.8568   34.6692 H         1 UNK         0.1150 
     30 H30        -6.4182  -12.2794   34.2162 H         1 UNK         0.1150 
     31 H31        -6.0671   -8.8858   36.8483 H         1 UNK         0.1150 
     32 H32        -5.3656  -13.7229   35.9452 H         1 UNK         0.1150 
     33 H33        -7.7442   -7.2395   37.6412 H         1 UNK         0.1150 
     34 H34        -7.6363   -4.2338   40.7011 H         1 UNK         0.1150 
     35 H35        -2.9669   -8.8014   41.4986 H         1 UNK         0.2317 
     36 H36        -8.9894   -7.0100   34.2494 H         1 UNK         0.0300 
     37 H37        -9.2109   -7.6629   35.8678 H         1 UNK         0.0300 
     38 H38        -7.5906   -7.1864   35.3018 H         1 UNK         0.0300 
     39 H39        -8.7370   -0.8032   40.5884 H         1 UNK         0.0300 
     40 H40        -7.3791   -1.9176   40.6861 H         1 UNK         0.0300 
     41 H41        -9.0007   -2.4236   41.2195 H         1 UNK         0.0300 
     42 H42        -8.9281   -1.6171   35.2618 H         1 UNK         0.0300 
     43 H43        -7.7916   -2.9655   35.2786 H         1 UNK         0.0300 
     44 H44        -7.7612   -1.7579   36.5770 H         1 UNK         0.0300 
     45 H45        -6.6666   -8.6602   42.2080 H         1 UNK         0.0600 
     46 H46        -5.1969   -7.8519   42.6816 H         1 UNK         0.0600 
     47 H47        -6.9876   -7.7804   39.6910 H         1 UNK         0.3000 
@<TRIPOS>BOND
     1    1    2 ar   
     2    1    3 ar   
     3    1   29 1    
     4    2    4 ar   
     5    2   30 1    
     6    3    8 ar   
     7    3   31 1    
     8    4   13 ar   
     9    4   32 1    
    10    5    9 ar   
    11    5   10 ar   
    12    5   33 1    
    13    6    9 ar   
    14    6   11 ar   
    15    6   34 1    
    16    7   14 2    
    17    7   27 1    
    18    7   35 1    
    19    8   13 ar   
    20    8   15 1    
    21    9   22 1    
    22   10   12 ar   
    23   10   24 1    
    24   11   12 ar   
    25   11   25 1    
    26   12   26 1    
    27   13   28 1    
    28   14   20 1    
    29   14   21 1    
    30   15   21 2    
    31   15   27 1    
    32   16   20 1    
    33   16   22 am   BACKBONE|DICT|INTERRES
    34   16   23 2    
    35   17   24 1    
    36   17   36 1    
    37   17   37 1    
    38   17   38 1    
    39   18   25 1    
    40   18   39 1    
    41   18   40 1    
    42   18   41 1    
    43   19   26 1    
    44   19   42 1    
    45   19   43 1    
    46   19   44 1    
    47   20   45 1    
    48   20   46 1    
    49   22   47 1    
@<TRIPOS>SUBSTRUCTURE
     1 UNK         1 GROUP             0       ****    0 ROOT    
@<TRIPOS>MOLECULE
ZINC13752216_59
52   55    1
SMALL
USER_CHARGES


@<TRIPOS>ATOM
      1 C1         -5.5823  -12.1818   37.7947 C.ar      1 UNK        -0.1150 
      2 C2         -5.3763  -10.0217   36.6915 C.ar      1 UNK        -0.1150 
      3 C3         -5.3558  -12.8247   36.5622 C.ar      1 UNK        -0.1150 
      4 C4         -5.1524  -10.6683   35.4606 C.ar      1 UNK        -0.1150 
      5 C5         -7.7119   -4.8051   39.3729 C.ar      1 UNK        -0.1150 
      6 C6         -8.5133   -6.8654   38.3668 C.ar      1 UNK        -0.1150 
      7 C7         -7.8005   -6.2101   39.3882 C.ar      1 UNK         0.0000 
      8 C8         -5.5870  -10.7703   37.8736 C.ar      1 UNK         0.0044 
      9 C9         -5.1378  -12.0821   35.3859 C.ar      1 UNK         0.0850 
     10 C10        -8.3137   -4.0391   38.3437 C.ar      1 UNK         0.0850 
     11 C11        -9.1129   -6.1305   37.3184 C.ar      1 UNK         0.0850 
     12 C12        -9.0014   -4.7198   37.2955 C.ar      1 UNK         0.0850 
     13 C13        -7.1502   -6.9638   40.4622 C.ar      1 UNK         0.4100 
     14 C14        -6.0572   -8.3858   41.5697 C.ar      1 UNK         0.5625 
     15 C15        -5.8346  -10.0771   39.1702 C.2       1 UNK         0.3492 
     16 C16        -5.5960  -10.8009   40.5016 C.3       1 UNK         0.0836 
     17 C17        -4.4942  -13.0899   31.8934 C.3       1 UNK        -0.1800 
     18 C18        -7.6388   -1.9822   39.4192 C.3       1 UNK         0.1100 
     19 C19        -9.9255   -8.1362   36.2582 C.3       1 UNK         0.1100 
     20 C20        -9.0998   -2.8727   35.7402 C.3       1 UNK         0.1100 
     21 C21        -4.7025  -12.0803   33.0233 C.3       1 UNK         0.1400 
     22 N22        -7.1305   -6.5279   41.7297 N.2       1 UNK        -0.3633 
     23 N23        -6.4154   -7.4600   42.4547 N.2       1 UNK        -0.3633 
     24 N24        -6.2653   -8.8746   39.1533 N.2       1 UNK        -0.3897 
     25 N25        -6.4904   -8.1367   40.3210 N.pl3     1 UNK        -0.0934 
     26 O26        -8.2695   -2.6583   38.3404 O.3       1 UNK        -0.2850 
     27 O27        -9.8089   -6.7217   36.2825 O.3       1 UNK        -0.2850 
     28 O28        -9.6214   -4.0989   36.2283 O.3       1 UNK        -0.2850 
     29 O29        -4.9259  -12.7978   34.2285 O.3       1 UNK        -0.2850 
     30 S30        -5.0828   -9.7967   41.9296 S.3       1 UNK        -0.3200 
     31 H31        -5.7583  -12.7946   38.6660 H         1 UNK         0.1150 
     32 H32        -5.3815   -8.9407   36.7168 H         1 UNK         0.1150 
     33 H33        -5.3514  -13.9041   36.5127 H         1 UNK         0.1150 
     34 H34        -4.9945  -10.0537   34.5876 H         1 UNK         0.1150 
     35 H35        -7.1715   -4.3358   40.1807 H         1 UNK         0.1150 
     36 H36        -8.5888   -7.9398   38.4057 H         1 UNK         0.1150 
     37 H37        -6.5168  -11.3180   40.7719 H         1 UNK         0.0600 
     38 H38        -4.8324  -11.5663   40.3689 H         1 UNK         0.0600 
     39 H39        -3.6342  -13.7287   32.0949 H         1 UNK         0.0600 
     40 H40        -5.3683  -13.7311   31.7783 H         1 UNK         0.0600 
     41 H41        -4.3214  -12.5836   30.9438 H         1 UNK         0.0600 
     42 H42        -7.7249   -0.9066   39.2665 H         1 UNK         0.0300 
     43 H43        -6.5760   -2.2220   39.4736 H         1 UNK         0.0300 
     44 H44        -8.1149   -2.2170   40.3724 H         1 UNK         0.0300 
     45 H45       -10.5007   -8.4326   35.3810 H         1 UNK         0.0300 
     46 H46       -10.4527   -8.5088   37.1374 H         1 UNK         0.0300 
     47 H47        -8.9481   -8.6159   36.1894 H         1 UNK         0.0300 
     48 H48        -9.4133   -2.7411   34.7048 H         1 UNK         0.0300 
     49 H49        -8.0091   -2.8533   35.7570 H         1 UNK         0.0300 
     50 H50        -9.4905   -2.0260   36.3047 H         1 UNK         0.0300 
     51 H51        -5.5594  -11.4449   32.7936 H         1 UNK         0.0300 
     52 H52        -3.8195  -11.4458   33.1152 H         1 UNK         0.0300 
@<TRIPOS>BOND
     1    1    3 ar   
     2    1    8 ar   
     3    1   31 1    
     4    2    4 ar   
     5    2    8 ar   
     6    2   32 1    
     7    3    9 ar   
     8    3   33 1    
     9    4    9 ar   
    10    4   34 1    
    11    5    7 ar   
    12    5   10 ar   
    13    5   35 1    
    14    6    7 ar   
    15    6   11 ar   
    16    6   36 1    
    17    7   13 1    
    18    8   15 1    
    19    9   29 1    
    20   10   12 ar   
    21   10   26 1    
    22   11   12 ar   
    23   11   27 1    
    24   12   28 1    
    25   13   22 ar   
    26   13   25 ar   
    27   14   23 ar   
    28   14   25 ar   
    29   14   30 1    
    30   15   16 1    
    31   15   24 2    
    32   16   30 1    
    33   16   37 1    
    34   16   38 1    
    35   17   21 1    
    36   17   39 1    
    37   17   40 1    
    38   17   41 1    
    39   18   26 1    
    40   18   42 1    
    41   18   43 1    
    42   18   44 1    
    43   19   27 1    
    44   19   45 1    
    45   19   46 1    
    46   19   47 1    
    47   20   28 1    
    48   20   48 1    
    49   20   49 1    
    50   20   50 1    
    51   21   29 1    
    52   21   51 1    
    53   21   52 1    
    54   22   23 ar   
    55   24   25 1    
@<TRIPOS>SUBSTRUCTURE
     1 UNK         1 GROUP             0       ****    0 ROOT    
@<TRIPOS>MOLECULE
ZINC14139790_25
46   49    1
SMALL
USER_CHARGES


@<TRIPOS>ATOM
      1 C1         -3.6456  -10.2403   35.5753 C.ar      1 UNK        -0.2222 
      2 C2         -3.8782  -11.6255   35.4704 C.ar      1 UNK        -0.0888 
      3 C3         -4.2218   -9.4980   36.6270 C.ar      1 UNK        -0.2243 
      4 C4         -4.6885  -12.2741   36.4212 C.ar      1 UNK        -0.3541 
      5 C5         -9.6353   -5.6687   37.9857 C.ar      1 UNK        -0.1150 
      6 C6         -9.0605   -6.3723   39.0576 C.ar      1 UNK        -0.1150 
      7 C7         -7.5301   -4.5086   39.4297 C.ar      1 UNK        -0.1150 
      8 C8         -5.0422  -10.1209   37.5963 C.ar      1 UNK         0.1233 
      9 C9         -5.7661   -9.6782   38.7544 C.ar      1 UNK        -0.2340 
     10 C10        -5.2592  -11.5277   37.4670 C.ar      1 UNK         0.2860 
     11 C11        -9.1789   -4.3839   37.6216 C.ar      1 UNK         0.0850 
     12 C12        -8.0991   -3.7881   38.3470 C.ar      1 UNK         0.0850 
     13 C13        -8.0130   -5.7809   39.7784 C.ar      1 UNK         0.1567 
     14 C14        -6.3708  -10.7729   39.2952 C.ar      1 UNK        -0.0293 
     15 C15        -5.9173   -8.3356   39.3913 C.3       1 UNK         0.2105 
     16 C16        -7.2446  -10.7315   40.5064 C.3       1 UNK         0.0317 
     17 C17        -7.0368   -9.4208   41.3122 C.3       1 UNK         0.0588 
     18 C18        -9.6708   -2.4726   36.1991 C.3       1 UNK         0.1100 
     19 C19        -6.5473   -1.9672   38.7029 C.3       1 UNK         0.1100 
     20 N20        -6.0806  -11.8840   38.5221 N.pl3     1 UNK        -0.4786 
     21 N21        -6.9705   -8.2374   40.4215 N.pl3     1 UNK        -0.5376 
     22 O22        -5.9295   -6.0983   41.4141 O.2       1 UNK        -0.4680 
     23 O23        -8.2499   -6.8481   42.1783 O.2       1 UNK        -0.4680 
     24 O24        -9.8538   -3.8355   36.5483 O.3       1 UNK        -0.2850 
     25 O25        -7.6230   -2.5459   37.9763 O.3       1 UNK        -0.2850 
     26 S26        -7.2455   -6.6832   41.1181 S.o2      1 UNK         0.8327 
     27 H27        -3.0223   -9.7442   34.8441 H         1 UNK         0.1489 
     28 H28        -3.4342  -12.1879   34.6606 H         1 UNK         0.1359 
     29 H29        -4.0367   -8.4371   36.6952 H         1 UNK         0.1699 
     30 H30        -4.8682  -13.3353   36.3446 H         1 UNK         0.1796 
     31 H31       -10.4449   -6.1180   37.4293 H         1 UNK         0.1150 
     32 H32        -9.4114   -7.3568   39.3314 H         1 UNK         0.1150 
     33 H33        -6.7126   -4.1177   40.0149 H         1 UNK         0.1150 
     34 H34        -4.9683   -8.0474   39.8465 H         1 UNK         0.0733 
     35 H35        -6.1112   -7.5880   38.6219 H         1 UNK         0.0733 
     36 H36        -8.2870  -10.7976   40.1926 H         1 UNK         0.0600 
     37 H37        -7.0555  -11.5949   41.1449 H         1 UNK         0.0600 
     38 H38        -7.8388   -9.3071   42.0419 H         1 UNK         0.0733 
     39 H39        -6.1054   -9.4706   41.8778 H         1 UNK         0.0733 
     40 H40       -10.4020   -2.2008   35.4378 H         1 UNK         0.0300 
     41 H41        -8.6824   -2.2991   35.7726 H         1 UNK         0.0300 
     42 H42        -9.8300   -1.8115   37.0520 H         1 UNK         0.0300 
     43 H43        -6.3103   -0.9929   38.2755 H         1 UNK         0.0300 
     44 H44        -5.6467   -2.5798   38.6408 H         1 UNK         0.0300 
     45 H45        -6.8098   -1.8102   39.7500 H         1 UNK         0.0300 
     46 H46        -6.4296  -12.8108   38.7128 H         1 UNK         0.3577 
@<TRIPOS>BOND
     1    1    2 ar   
     2    1    3 ar   
     3    1   27 1    
     4    2    4 ar   
     5    2   28 1    
     6    3    8 ar   
     7    3   29 1    
     8    4   10 ar   
     9    4   30 1    
    10    5    6 ar   
    11    5   11 ar   
    12    5   31 1    
    13    6   13 ar   
    14    6   32 1    
    15    7   12 ar   
    16    7   13 ar   
    17    7   33 1    
    18    8    9 ar   
    19    8   10 ar   
    20    9   14 ar   
    21    9   15 1    
    22   10   20 ar   
    23   11   12 ar   
    24   11   24 1    
    25   12   25 1    
    26   13   26 1    
    27   14   16 1    
    28   14   20 ar   
    29   15   21 1    
    30   15   34 1    
    31   15   35 1    
    32   16   17 1    
    33   16   36 1    
    34   16   37 1    
    35   17   21 1    
    36   17   38 1    
    37   17   39 1    
    38   18   24 1    
    39   18   40 1    
    40   18   41 1    
    41   18   42 1    
    42   19   25 1    
    43   19   43 1    
    44   19   44 1    
    45   19   45 1    
    46   20   46 1    
    47   21   26 1    
    48   22   26 2    
    49   23   26 2    
@<TRIPOS>SUBSTRUCTURE
     1 UNK         1 GROUP             0       ****    0 ROOT    
@<TRIPOS>MOLECULE
ZINC14197684_2
39   41    1
SMALL
USER_CHARGES


@<TRIPOS>ATOM
      1 C1         -4.9729  -10.0936   38.0975 C.ar      1 UNK        -0.3245 
      2 C2         -4.5362  -11.4045   38.3750 C.ar      1 UNK        -0.1228 
      3 C3         -4.7077  -10.9596   40.7798 C.ar      1 UNK        -0.3038 
      4 C4         -5.5409   -8.5011   41.3070 C.2       1 UNK        -0.5146 
      5 C5         -7.7877   -5.8999   38.6356 C.ar      1 UNK        -0.1150 
      6 C6         -6.7236   -3.9302   39.5976 C.ar      1 UNK        -0.1150 
      7 C7         -5.1505   -9.6405   40.5314 C.ar      1 UNK         0.2581 
      8 C8         -6.9466   -5.3238   39.6144 C.ar      1 UNK        -0.1150 
      9 C9         -5.2694   -9.2454   39.1756 C.ar      1 UNK         0.3230 
     10 C10        -8.3754   -5.1035   37.6237 C.ar      1 UNK         0.0850 
     11 C11        -7.3040   -3.1140   38.5980 C.ar      1 UNK         0.0850 
     12 C12        -8.1178   -3.7126   37.6113 C.ar      1 UNK         0.0850 
     13 C13        -4.4054  -11.8328   39.7130 C.ar      1 UNK         0.1646 
     14 C14        -5.8796   -7.5094   40.4107 C.2       1 UNK         0.1363 
     15 C15        -6.3222   -6.1360   40.6986 C.2       1 UNK         0.7000 
     16 C16        -9.4812   -6.9987   36.6311 C.3       1 UNK         0.1100 
     17 C17        -6.3577   -1.1091   39.5321 C.3       1 UNK         0.1100 
     18 C18        -8.0324   -2.9875   35.3954 C.3       1 UNK         0.1100 
     19 O19        -6.1506   -5.6728   41.8268 O.2       1 UNK        -0.4700 
     20 O20        -5.7074   -7.9418   39.1148 O.3       1 UNK        -0.3115 
     21 O21        -9.2032   -5.6067   36.6406 O.3       1 UNK        -0.2850 
     22 O22        -7.1149   -1.7496   38.5167 O.3       1 UNK        -0.2850 
     23 O23        -8.6853   -2.9140   36.6516 O.3       1 UNK        -0.2850 
     24 Br24       -3.8182  -13.6021   40.0840 Br        1 UNK        -0.2000 
     25 H25        -5.0782   -9.7418   37.0828 H         1 UNK         0.1955 
     26 H26        -4.2989  -12.0859   37.5698 H         1 UNK         0.1498 
     27 H27        -4.5981  -11.3089   41.7947 H         1 UNK         0.1930 
     28 H28        -5.5658   -8.4209   42.3841 H         1 UNK         0.2419 
     29 H29        -7.9826   -6.9598   38.6792 H         1 UNK         0.1150 
     30 H30        -6.0950   -3.5051   40.3661 H         1 UNK         0.1150 
     31 H31       -10.1334   -7.2274   35.7883 H         1 UNK         0.0300 
     32 H32        -9.9979   -7.3077   37.5406 H         1 UNK         0.0300 
     33 H33        -8.5708   -7.5875   36.5119 H         1 UNK         0.0300 
     34 H34        -6.3328   -0.0370   39.3380 H         1 UNK         0.0300 
     35 H35        -5.3267   -1.4647   39.5465 H         1 UNK         0.0300 
     36 H36        -6.8059   -1.2548   40.5159 H         1 UNK         0.0300 
     37 H37        -8.4960   -2.2845   34.7037 H         1 UNK         0.0300 
     38 H38        -8.1041   -3.9832   34.9569 H         1 UNK         0.0300 
     39 H39        -6.9784   -2.7212   35.4868 H         1 UNK         0.0300 
@<TRIPOS>BOND
     1    1    2 ar   
     2    1    9 ar   
     3    1   25 1    
     4    2   13 ar   
     5    2   26 1    
     6    3    7 ar   
     7    3   13 ar   
     8    3   27 1    
     9    4    7 1    
    10    4   14 2    
    11    4   28 1    
    12    5    8 ar   
    13    5   10 ar   
    14    5   29 1    
    15    6    8 ar   
    16    6   11 ar   
    17    6   30 1    
    18    7    9 ar   
    19    8   15 1    
    20    9   20 1    
    21   10   12 ar   
    22   10   21 1    
    23   11   12 ar   
    24   11   22 1    
    25   12   23 1    
    26   13   24 1    
    27   14   15 1    
    28   14   20 1    
    29   15   19 2    
    30   16   21 1    
    31   16   31 1    
    32   16   32 1    
    33   16   33 1    
    34   17   22 1    
    35   17   34 1    
    36   17   35 1    
    37   17   36 1    
    38   18   23 1    
    39   18   37 1    
    40   18   38 1    
    41   18   39 1    
@<TRIPOS>SUBSTRUCTURE
     1 UNK         1 GROUP             0       ****    0 ROOT    
@<TRIPOS>MOLECULE
ZINC14240032_2
39   41    1
SMALL
USER_CHARGES


@<TRIPOS>ATOM
      1 C1         -4.4017  -11.8335   39.7133 C.ar      1 UNK        -0.1925 
      2 C2         -4.5296  -11.4042   38.3748 C.ar      1 UNK        -0.1228 
      3 C3         -4.7065  -10.9600   40.7813 C.ar      1 UNK        -0.3038 
      4 C4         -4.9658  -10.0934   38.0997 C.ar      1 UNK        -0.3245 
      5 C5         -5.5379   -8.5024   41.3083 C.2       1 UNK        -0.5146 
      6 C6         -7.7819   -5.9043   38.6359 C.ar      1 UNK        -0.1150 
      7 C7         -6.7251   -3.9310   39.5981 C.ar      1 UNK        -0.1150 
      8 C8         -5.1480   -9.6405   40.5324 C.ar      1 UNK         0.2581 
      9 C9         -6.9430   -5.3255   39.6151 C.ar      1 UNK        -0.1150 
     10 C10        -5.2639   -9.2449   39.1770 C.ar      1 UNK         0.3230 
     11 C11        -8.3722   -5.1100   37.6238 C.ar      1 UNK         0.0850 
     12 C12        -7.3090   -3.1167   38.5989 C.ar      1 UNK         0.0850 
     13 C13        -8.1207   -3.7181   37.6123 C.ar      1 UNK         0.0850 
     14 C14        -5.8737   -7.5096   40.4121 C.2       1 UNK         0.1363 
     15 C15        -6.3151   -6.1359   40.6992 C.2       1 UNK         0.7000 
     16 C16        -9.4635   -7.0104   36.6257 C.3       1 UNK         0.1100 
     17 C17        -6.3636   -1.1099   39.5292 C.3       1 UNK         0.1100 
     18 C18        -8.0386   -2.9937   35.3970 C.3       1 UNK         0.1100 
     19 O19        -6.1407   -5.6703   41.8263 O.2       1 UNK        -0.4700 
     20 O20        -5.6999   -7.9400   39.1160 O.3       1 UNK        -0.3115 
     21 O21        -9.1972   -5.6162   36.6398 O.3       1 UNK        -0.2850 
     22 O22        -7.1254   -1.7516   38.5180 O.3       1 UNK        -0.2850 
     23 O23        -8.6915   -2.9214   36.6530 O.3       1 UNK        -0.2850 
     24 H24        -4.0660  -12.8406   39.9222 H         1 UNK         0.1571 
     25 H25        -4.2914  -12.0794   37.5638 H         1 UNK         0.1498 
     26 H26        -4.6017  -11.3014   41.8002 H         1 UNK         0.1930 
     27 H27        -5.0684   -9.7384   37.0858 H         1 UNK         0.1955 
     28 H28        -5.5636   -8.4248   42.3849 H         1 UNK         0.2419 
     29 H29        -7.9729   -6.9651   38.6791 H         1 UNK         0.1150 
     30 H30        -6.0982   -3.5034   40.3665 H         1 UNK         0.1150 
     31 H31       -10.1142   -7.2419   35.7826 H         1 UNK         0.0300 
     32 H32        -9.9770   -7.3268   37.5345 H         1 UNK         0.0300 
     33 H33        -8.5485   -7.5917   36.5041 H         1 UNK         0.0300 
     34 H34        -6.3407   -0.0376   39.3355 H         1 UNK         0.0300 
     35 H35        -5.3324   -1.4649   39.5374 H         1 UNK         0.0300 
     36 H36        -6.8062   -1.2568   40.5154 H         1 UNK         0.0300 
     37 H37        -8.5038   -2.2915   34.7055 H         1 UNK         0.0300 
     38 H38        -8.1088   -3.9893   34.9584 H         1 UNK         0.0300 
     39 H39        -6.9849   -2.7259   35.4883 H         1 UNK         0.0300 
@<TRIPOS>BOND
     1    1    2 ar   
     2    1    3 ar   
     3    1   24 1    
     4    2    4 ar   
     5    2   25 1    
     6    3    8 ar   
     7    3   26 1    
     8    4   10 ar   
     9    4   27 1    
    10    5    8 1    
    11    5   14 2    
    12    5   28 1    
    13    6    9 ar   
    14    6   11 ar   
    15    6   29 1    
    16    7    9 ar   
    17    7   12 ar   
    18    7   30 1    
    19    8   10 ar   
    20    9   15 1    
    21   10   20 1    
    22   11   13 ar   
    23   11   21 1    
    24   12   13 ar   
    25   12   22 1    
    26   13   23 1    
    27   14   15 1    
    28   14   20 1    
    29   15   19 2    
    30   16   21 1    
    31   16   31 1    
    32   16   32 1    
    33   16   33 1    
    34   17   22 1    
    35   17   34 1    
    36   17   35 1    
    37   17   36 1    
    38   18   23 1    
    39   18   37 1    
    40   18   38 1    
    41   18   39 1    
@<TRIPOS>SUBSTRUCTURE
     1 UNK         1 GROUP             0       ****    0 ROOT    
@<TRIPOS>MOLECULE
ZINC14423080_15
44   46    1
SMALL
USER_CHARGES


@<TRIPOS>ATOM
      1 C1         -4.1491   -7.3201   36.9189 C.ar      1 UNK        -0.1150 
      2 C2         -4.5208   -6.8368   38.1862 C.ar      1 UNK        -0.1150 
      3 C3         -7.5079   -5.7631   38.6144 C.ar      1 UNK        -0.1150 
      4 C4         -6.4240   -3.7875   39.5174 C.ar      1 UNK        -0.1150 
      5 C5         -4.9031   -9.5450   37.5503 C.ar      1 UNK        -0.1150 
      6 C6         -6.6566   -5.1738   39.5738 C.ar      1 UNK        -0.1150 
      7 C7         -5.2789   -9.0682   38.8230 C.ar      1 UNK        -0.1150 
      8 C8         -4.3506   -8.6737   36.5926 C.ar      1 UNK        -0.1150 
      9 C9         -5.1250   -7.6922   39.1421 C.ar      1 UNK        -0.0383 
     10 C10        -8.0737   -5.0044   37.5582 C.ar      1 UNK         0.0850 
     11 C11        -7.7966   -3.6059   37.4918 C.ar      1 UNK         0.0850 
     12 C12        -6.9880   -3.0142   38.4896 C.ar      1 UNK         0.1800 
     13 C13        -6.0641   -5.9851   40.6970 C.2       1 UNK         0.6150 
     14 C14        -5.8076  -10.0703   39.8399 C.3       1 UNK        -0.0050 
     15 C15        -6.2995   -9.4324   41.1466 C.3       1 UNK        -0.1200 
     16 C16        -5.4724   -8.1970   41.5272 C.3       1 UNK        -0.0500 
     17 C17        -3.9491   -9.1946   35.2283 C.3       1 UNK        -0.0650 
     18 C18        -9.0251   -6.9965   36.5775 C.3       1 UNK         0.1100 
     19 C19        -8.5984   -3.2452   35.2359 C.3       1 UNK         0.1100 
     20 N20        -5.5344   -7.2152   40.4351 N.am      1 UNK        -0.0317 
     21 O21        -6.0656   -5.4898   41.8251 O.2       1 UNK        -0.5000 
     22 O22        -8.9039   -5.5810   36.6171 O.3       1 UNK        -0.2850 
     23 O23        -8.2801   -2.7441   36.5250 O.3       1 UNK        -0.2850 
     24 Cl24       -6.6541   -1.3190   38.4530 Cl        1 UNK        -0.1800 
     25 H25        -3.7037   -6.6463   36.2010 H         1 UNK         0.1150 
     26 H26        -4.3369   -5.7956   38.4080 H         1 UNK         0.1150 
     27 H27        -7.7087   -6.8193   38.7078 H         1 UNK         0.1150 
     28 H28        -5.8078   -3.3101   40.2663 H         1 UNK         0.1150 
     29 H29        -5.0278  -10.5920   37.3130 H         1 UNK         0.1150 
     30 H30        -6.6004  -10.6705   39.3915 H         1 UNK         0.0600 
     31 H31        -4.9902  -10.7563   40.0666 H         1 UNK         0.0600 
     32 H32        -7.3372   -9.1205   41.0191 H         1 UNK         0.0600 
     33 H33        -6.3006  -10.1692   41.9507 H         1 UNK         0.0600 
     34 H34        -5.8311   -7.8100   42.4827 H         1 UNK         0.0600 
     35 H35        -4.4293   -8.4731   41.6871 H         1 UNK         0.0600 
     36 H36        -2.9032   -9.5022   35.2364 H         1 UNK         0.0600 
     37 H37        -4.5580  -10.0529   34.9427 H         1 UNK         0.0600 
     38 H38        -4.0757   -8.4250   34.4663 H         1 UNK         0.0600 
     39 H39        -9.6260   -7.2795   35.7135 H         1 UNK         0.0300 
     40 H40        -9.5298   -7.3786   37.4656 H         1 UNK         0.0300 
     41 H41        -8.0525   -7.4810   36.4742 H         1 UNK         0.0300 
     42 H42        -8.5965   -2.4197   34.5244 H         1 UNK         0.0300 
     43 H43        -9.5966   -3.6834   35.2174 H         1 UNK         0.0300 
     44 H44        -7.8685   -3.9779   34.8880 H         1 UNK         0.0300 
@<TRIPOS>BOND
     1    1    2 ar   
     2    1    8 ar   
     3    1   25 1    
     4    2    9 ar   
     5    2   26 1    
     6    3    6 ar   
     7    3   10 ar   
     8    3   27 1    
     9    4    6 ar   
    10    4   12 ar   
    11    4   28 1    
    12    5    7 ar   
    13    5    8 ar   
    14    5   29 1    
    15    6   13 1    
    16    7    9 ar   
    17    7   14 1    
    18    8   17 1    
    19    9   20 1    
    20   10   11 ar   
    21   10   22 1    
    22   11   12 ar   
    23   11   23 1    
    24   12   24 1    
    25   13   20 am   BACKBONE|DICT|INTERRES
    26   13   21 2    
    27   14   15 1    
    28   14   30 1    
    29   14   31 1    
    30   15   16 1    
    31   15   32 1    
    32   15   33 1    
    33   16   20 1    
    34   16   34 1    
    35   16   35 1    
    36   17   36 1    
    37   17   37 1    
    38   17   38 1    
    39   18   22 1    
    40   18   39 1    
    41   18   40 1    
    42   18   41 1    
    43   19   23 1    
    44   19   42 1    
    45   19   43 1    
    46   19   44 1    
@<TRIPOS>SUBSTRUCTURE
     1 UNK         1 GROUP             0       ****    0 ROOT    
@<TRIPOS>MOLECULE
ZINC14472778_97
47   49    1
SMALL
USER_CHARGES


@<TRIPOS>ATOM
      1 C1         -5.9086  -12.2079   35.2608 C.ar      1 UNK        -0.1150 
      2 C2         -4.6245  -11.6583   35.4350 C.ar      1 UNK        -0.1150 
      3 C3         -6.8762  -12.0647   36.2731 C.ar      1 UNK        -0.1150 
      4 C4         -4.3069  -10.9674   36.6210 C.ar      1 UNK        -0.1150 
      5 C5         -6.5590  -11.3717   37.4578 C.ar      1 UNK        -0.1150 
      6 C6         -7.7856   -4.4600   39.7139 C.ar      1 UNK        -0.1150 
      7 C7         -8.0238   -6.1134   37.9409 C.ar      1 UNK        -0.1150 
      8 C8         -3.9233   -8.9609   40.8007 C.2       1 UNK        -0.3376 
      9 C9         -5.2719  -10.8190   37.6437 C.ar      1 UNK         0.0000 
     10 C10        -7.6514   -5.7936   39.2622 C.ar      1 UNK         0.0850 
     11 C11        -8.2798   -3.4514   38.8512 C.ar      1 UNK         0.0850 
     12 C12        -8.5247   -5.1227   37.0622 C.ar      1 UNK         0.0850 
     13 C13        -8.6353   -3.7911   37.5274 C.ar      1 UNK         0.0850 
     14 C14        -5.2953   -8.9135   40.8078 C.2       1 UNK         0.1693 
     15 C15        -4.9632  -10.0972   38.8784 C.2       1 UNK         0.3009 
     16 C16        -6.7137   -6.8925   41.3300 C.2       1 UNK         0.5000 
     17 C17        -8.1303   -1.7630   40.5602 C.3       1 UNK         0.1100 
     18 C18        -8.8879   -6.7249   35.3006 C.3       1 UNK         0.1100 
     19 C19        -8.1997   -2.3882   35.7086 C.3       1 UNK         0.1100 
     20 C20        -6.1789   -8.2426   41.8280 C.3       1 UNK        -0.0050 
     21 N21        -5.8695   -9.5762   39.7144 N.2       1 UNK        -0.4803 
     22 N22        -7.1461   -6.8618   40.0555 N.am      1 UNK        -0.3850 
     23 O23        -6.7473   -5.9398   42.1066 O.2       1 UNK        -0.5000 
     24 O24        -8.4268   -2.1291   39.2205 O.3       1 UNK        -0.2850 
     25 O25        -8.9224   -5.3841   35.7659 O.3       1 UNK        -0.2850 
     26 O26        -9.1184   -2.8036   36.7062 O.3       1 UNK        -0.2850 
     27 S27        -3.3056   -9.8181   39.4146 S.3       1 UNK         0.0010 
     28 H28        -6.1503  -12.7398   34.3516 H         1 UNK         0.1150 
     29 H29        -3.8815  -11.7662   34.6578 H         1 UNK         0.1150 
     30 H30        -7.8618  -12.4877   36.1427 H         1 UNK         0.1150 
     31 H31        -3.3180  -10.5479   36.7306 H         1 UNK         0.1150 
     32 H32        -7.3071  -11.2693   38.2309 H         1 UNK         0.1150 
     33 H33        -7.5031   -4.2040   40.7203 H         1 UNK         0.1150 
     34 H34        -7.9185   -7.1359   37.6133 H         1 UNK         0.1150 
     35 H35        -3.2364   -8.5359   41.5185 H         1 UNK         0.2317 
     36 H36        -8.3233   -0.6985   40.6921 H         1 UNK         0.0300 
     37 H37        -7.0807   -1.9391   40.8001 H         1 UNK         0.0300 
     38 H38        -8.7601   -2.3020   41.2696 H         1 UNK         0.0300 
     39 H39        -9.2616   -6.7583   34.2774 H         1 UNK         0.0300 
     40 H40        -9.5246   -7.3735   35.9040 H         1 UNK         0.0300 
     41 H41        -7.8710   -7.1195   35.2925 H         1 UNK         0.0300 
     42 H42        -8.5901   -1.5055   35.2025 H         1 UNK         0.0300 
     43 H43        -8.0405   -3.1590   34.9546 H         1 UNK         0.0300 
     44 H44        -7.2357   -2.1228   36.1449 H         1 UNK         0.0300 
     45 H45        -7.0284   -8.8781   42.0786 H         1 UNK         0.0600 
     46 H46        -5.6339   -8.0817   42.7588 H         1 UNK         0.0600 
     47 H47        -7.0351   -7.7513   39.5826 H         1 UNK         0.3000 
@<TRIPOS>BOND
     1    1    2 ar   
     2    1    3 ar   
     3    1   28 1    
     4    2    4 ar   
     5    2   29 1    
     6    3    5 ar   
     7    3   30 1    
     8    4    9 ar   
     9    4   31 1    
    10    5    9 ar   
    11    5   32 1    
    12    6   10 ar   
    13    6   11 ar   
    14    6   33 1    
    15    7   10 ar   
    16    7   12 ar   
    17    7   34 1    
    18    8   14 2    
    19    8   27 1    
    20    8   35 1    
    21    9   15 1    
    22   10   22 1    
    23   11   13 ar   
    24   11   24 1    
    25   12   13 ar   
    26   12   25 1    
    27   13   26 1    
    28   14   20 1    
    29   14   21 1    
    30   15   21 2    
    31   15   27 1    
    32   16   20 1    
    33   16   22 am   BACKBONE|DICT|INTERRES
    34   16   23 2    
    35   17   24 1    
    36   17   36 1    
    37   17   37 1    
    38   17   38 1    
    39   18   25 1    
    40   18   39 1    
    41   18   40 1    
    42   18   41 1    
    43   19   26 1    
    44   19   42 1    
    45   19   43 1    
    46   19   44 1    
    47   20   45 1    
    48   20   46 1    
    49   22   47 1    
@<TRIPOS>SUBSTRUCTURE
     1 UNK         1 GROUP             0       ****    0 ROOT    
@<TRIPOS>MOLECULE
ZINC14608449_179
51   53    1
SMALL
USER_CHARGES


@<TRIPOS>ATOM
      1 C1         -7.5254   -5.5368   37.9686 C.ar      1 UNK        -0.1150 
      2 C2         -6.5114   -3.7652   39.2854 C.ar      1 UNK        -0.1150 
      3 C3         -4.2760   -8.7852   35.5955 C.ar      1 UNK        -0.6890 
      4 C4         -6.1733   -8.9971   41.6350 C.ar      1 UNK        -0.3200 
      5 C5         -6.7740   -5.1348   39.0940 C.ar      1 UNK        -0.1150 
      6 C6         -8.0073   -4.5955   37.0257 C.ar      1 UNK         0.0850 
      7 C7         -6.9864   -2.8010   38.3663 C.ar      1 UNK         0.0850 
      8 C8         -7.7198   -3.2129   37.2282 C.ar      1 UNK         0.0850 
      9 C9         -4.6183   -7.6925   36.3973 C.ar      1 UNK         0.5490 
     10 C10        -4.2879  -10.0350   36.2248 C.ar      1 UNK         0.5490 
     11 C11        -5.3113  -10.1230   41.5371 C.ar      1 UNK         0.2230 
     12 C12        -6.0977   -8.4371   40.3897 C.ar      1 UNK         0.2710 
     13 C13        -4.9241   -9.0717   38.2126 C.ar      1 UNK         0.9645 
     14 C14        -6.2225   -6.1262   40.0617 C.2       1 UNK         0.6250 
     15 C15        -4.6548   -6.2822   35.8505 C.3       1 UNK        -0.0650 
     16 C16        -3.9338  -11.3032   35.4816 C.3       1 UNK        -0.0650 
     17 C17        -4.9684  -11.1289   42.5938 C.3       1 UNK        -0.0650 
     18 C18        -9.0464   -6.3589   35.7338 C.3       1 UNK         0.1100 
     19 C19        -6.0525   -0.9883   39.6497 C.3       1 UNK         0.1100 
     20 C20        -8.3348   -2.4476   35.0138 C.3       1 UNK         0.1100 
     21 N21        -4.9460   -7.8449   37.6859 N.ar      1 UNK        -0.8390 
     22 N22        -4.6139  -10.1670   37.5147 N.ar      1 UNK        -0.8390 
     23 N23        -4.7852  -10.2536   40.3314 N.2       1 UNK        -0.5310 
     24 N24        -5.2700   -9.2186   39.5922 N.pl3     1 UNK         0.0695 
     25 O25        -5.3687   -5.8424   40.9052 O.2       1 UNK        -0.4300 
     26 O26        -8.7553   -4.9821   35.9301 O.3       1 UNK        -0.2850 
     27 O27        -6.7572   -1.4465   38.5057 O.3       1 UNK        -0.2850 
     28 O28        -8.1263   -2.1889   36.3931 O.3       1 UNK        -0.2850 
     29 O29        -6.7541   -7.3591   39.9036 O.3       1 UNK        -0.1800 
     30 H30        -7.7086   -6.5900   37.8274 H         1 UNK         0.1150 
     31 H31        -5.9330   -3.4730   40.1490 H         1 UNK         0.1150 
     32 H32        -4.0113   -8.6717   34.5542 H         1 UNK         0.1970 
     33 H33        -6.7448   -8.6493   42.4820 H         1 UNK         0.1500 
     34 H34        -5.6497   -6.0512   35.4716 H         1 UNK         0.0600 
     35 H35        -4.4108   -5.5585   36.6291 H         1 UNK         0.0600 
     36 H36        -3.9377   -6.1610   35.0392 H         1 UNK         0.0600 
     37 H37        -2.8689  -11.5102   35.5828 H         1 UNK         0.0600 
     38 H38        -4.4877  -12.1519   35.8842 H         1 UNK         0.0600 
     39 H39        -4.1723  -11.2132   34.4222 H         1 UNK         0.0600 
     40 H40        -5.4582  -12.0824   42.3968 H         1 UNK         0.0600 
     41 H41        -3.8937  -11.3085   42.6297 H         1 UNK         0.0600 
     42 H42        -5.2813  -10.7892   43.5807 H         1 UNK         0.0600 
     43 H43        -9.6405   -6.4732   34.8272 H         1 UNK         0.0300 
     44 H44        -9.6296   -6.7664   36.5607 H         1 UNK         0.0300 
     45 H45        -8.1364   -6.9469   35.6047 H         1 UNK         0.0300 
     46 H46        -5.9743    0.0980   39.6108 H         1 UNK         0.0300 
     47 H47        -5.0388   -1.3899   39.6823 H         1 UNK         0.0300 
     48 H48        -6.5761   -1.2478   40.5708 H         1 UNK         0.0300 
     49 H49        -8.2714   -1.5089   34.4641 H         1 UNK         0.0300 
     50 H50        -9.3288   -2.8587   34.8353 H         1 UNK         0.0300 
     51 H51        -7.5791   -3.1182   34.6025 H         1 UNK         0.0300 
@<TRIPOS>BOND
     1    1    5 ar   
     2    1    6 ar   
     3    1   30 1    
     4    2    5 ar   
     5    2    7 ar   
     6    2   31 1    
     7    3    9 ar   
     8    3   10 ar   
     9    3   32 1    
    10    4   11 ar   
    11    4   12 ar   
    12    4   33 1    
    13    5   14 1    
    14    6    8 ar   
    15    6   26 1    
    16    7    8 ar   
    17    7   27 1    
    18    8   28 1    
    19    9   15 1    
    20    9   21 ar   
    21   10   16 1    
    22   10   22 ar   
    23   11   17 1    
    24   11   23 ar   
    25   12   24 ar   
    26   12   29 1    
    27   13   21 ar   
    28   13   22 ar   
    29   13   24 1    
    30   14   25 2    
    31   14   29 1    
    32   15   34 1    
    33   15   35 1    
    34   15   36 1    
    35   16   37 1    
    36   16   38 1    
    37   16   39 1    
    38   17   40 1    
    39   17   41 1    
    40   17   42 1    
    41   18   26 1    
    42   18   43 1    
    43   18   44 1    
    44   18   45 1    
    45   19   27 1    
    46   19   46 1    
    47   19   47 1    
    48   19   48 1    
    49   20   28 1    
    50   20   49 1    
    51   20   50 1    
    52   20   51 1    
    53   23   24 ar   
@<TRIPOS>SUBSTRUCTURE
     1 UNK         1 GROUP             0       ****    0 ROOT    
@<TRIPOS>MOLECULE
ZINC14899879_146
46   48    1
SMALL
USER_CHARGES


@<TRIPOS>ATOM
      1 C1         -5.0300  -12.1152   34.9786 C.ar      1 UNK        -0.1150 
      2 C2         -5.8179  -12.7825   35.9363 C.ar      1 UNK        -0.1150 
      3 C3         -4.4334  -10.8797   35.2958 C.ar      1 UNK        -0.1150 
      4 C4         -6.0088  -12.2147   37.2120 C.ar      1 UNK        -0.1150 
      5 C5         -4.6244  -10.3128   36.5716 C.ar      1 UNK        -0.1150 
      6 C6         -7.8236   -4.4211   39.6242 C.ar      1 UNK        -0.1150 
      7 C7         -8.4715   -5.1015   36.9750 C.ar      1 UNK        -0.1150 
      8 C8         -5.4124  -10.9765   37.5374 C.ar      1 UNK         0.0000 
      9 C9         -7.3323   -5.6229   39.0621 C.ar      1 UNK         0.0850 
     10 C10        -8.6532   -3.5565   38.8684 C.ar      1 UNK         0.0850 
     11 C11        -7.6460   -5.9672   37.7302 C.ar      1 UNK         0.0850 
     12 C12        -8.9693   -3.9125   37.5396 C.ar      1 UNK         0.1800 
     13 C13        -5.6484   -9.0959   40.6025 C.2       1 UNK         0.1450 
     14 C14        -6.4056  -10.2087   40.8611 C.2       1 UNK        -0.0820 
     15 C15        -5.6095  -10.3773   38.8542 C.2       1 UNK         0.5540 
     16 C16        -6.2967   -6.7145   41.0701 C.2       1 UNK         0.5000 
     17 C17        -7.2087  -10.6410   42.0403 C.3       1 UNK        -0.0650 
     18 C18        -8.8962   -2.0151   40.6995 C.3       1 UNK         0.1100 
     19 C19        -7.4610   -7.5534   35.9296 C.3       1 UNK         0.1100 
     20 C20        -5.3855   -7.8854   41.4585 C.3       1 UNK        -0.0050 
     21 N21        -5.1364   -9.2177   39.3158 N.2       1 UNK        -0.5900 
     22 N22        -6.4926   -6.5318   39.7537 N.am      1 UNK        -0.3850 
     23 O23        -6.7774   -6.0035   41.9519 O.2       1 UNK        -0.5000 
     24 O24        -6.3894  -11.0266   39.7636 O.3       1 UNK        -0.2570 
     25 O25        -9.1749   -2.3747   39.3540 O.3       1 UNK        -0.2850 
     26 O26        -7.1183   -7.1489   37.2467 O.3       1 UNK        -0.2850 
     27 Cl27       -9.9742   -2.8889   36.5770 Cl        1 UNK        -0.1800 
     28 H28        -4.8824  -12.5514   34.0008 H         1 UNK         0.1150 
     29 H29        -6.2754  -13.7309   35.6931 H         1 UNK         0.1150 
     30 H30        -3.8274  -10.3670   34.5625 H         1 UNK         0.1150 
     31 H31        -6.6153  -12.7323   37.9415 H         1 UNK         0.1150 
     32 H32        -4.1660   -9.3642   36.8137 H         1 UNK         0.1150 
     33 H33        -7.5541   -4.1638   40.6349 H         1 UNK         0.1150 
     34 H34        -8.7408   -5.3237   35.9548 H         1 UNK         0.1150 
     35 H35        -8.0522   -9.9688   42.1992 H         1 UNK         0.0600 
     36 H36        -7.6011  -11.6485   41.8999 H         1 UNK         0.0600 
     37 H37        -6.6000  -10.6400   42.9444 H         1 UNK         0.0600 
     38 H38        -9.4066   -1.0815   40.9348 H         1 UNK         0.0300 
     39 H39        -7.8286   -1.8555   40.8557 H         1 UNK         0.0300 
     40 H40        -9.2555   -2.7710   41.3993 H         1 UNK         0.0300 
     41 H41        -6.9861   -8.5106   35.7132 H         1 UNK         0.0300 
     42 H42        -7.1087   -6.8357   35.1877 H         1 UNK         0.0300 
     43 H43        -8.5380   -7.6885   35.8210 H         1 UNK         0.0300 
     44 H44        -5.5426   -8.1200   42.5116 H         1 UNK         0.0600 
     45 H45        -4.3483   -7.5641   41.3637 H         1 UNK         0.0600 
     46 H46        -6.0757   -7.2495   39.1673 H         1 UNK         0.3000 
@<TRIPOS>BOND
     1    1    2 ar   
     2    1    3 ar   
     3    1   28 1    
     4    2    4 ar   
     5    2   29 1    
     6    3    5 ar   
     7    3   30 1    
     8    4    8 ar   
     9    4   31 1    
    10    5    8 ar   
    11    5   32 1    
    12    6    9 ar   
    13    6   10 ar   
    14    6   33 1    
    15    7   11 ar   
    16    7   12 ar   
    17    7   34 1    
    18    8   15 1    
    19    9   11 ar   
    20    9   22 1    
    21   10   12 ar   
    22   10   25 1    
    23   11   26 1    
    24   12   27 1    
    25   13   14 2    
    26   13   20 1    
    27   13   21 1    
    28   14   17 1    
    29   14   24 1    
    30   15   21 2    
    31   15   24 1    
    32   16   20 1    
    33   16   22 am   BACKBONE|DICT|INTERRES
    34   16   23 2    
    35   17   35 1    
    36   17   36 1    
    37   17   37 1    
    38   18   25 1    
    39   18   38 1    
    40   18   39 1    
    41   18   40 1    
    42   19   26 1    
    43   19   41 1    
    44   19   42 1    
    45   19   43 1    
    46   20   44 1    
    47   20   45 1    
    48   22   46 1    
@<TRIPOS>SUBSTRUCTURE
     1 UNK         1 GROUP             0       ****    0 ROOT    
@<TRIPOS>MOLECULE
ZINC15154751_259
44   46    1
SMALL
USER_CHARGES


@<TRIPOS>ATOM
      1 C1         -4.1820  -11.9492   37.4905 C.ar      1 UNK        -0.1150 
      2 C2         -6.2225  -11.1130   36.4844 C.ar      1 UNK        -0.1150 
      3 C3         -3.7153  -12.3473   36.2220 C.ar      1 UNK        -0.1150 
      4 C4         -5.7635  -11.5086   35.2128 C.ar      1 UNK        -0.1150 
      5 C5         -8.2137   -4.9156   39.5491 C.ar      1 UNK        -0.1150 
      6 C6         -9.8515   -6.5465   38.7655 C.ar      1 UNK        -0.1150 
      7 C7         -9.8947   -4.2676   37.9189 C.ar      1 UNK        -0.1150 
      8 C8         -5.4434  -11.3267   37.6464 C.ar      1 UNK         0.0000 
      9 C9         -8.7406   -6.2260   39.5816 C.ar      1 UNK        -0.1150 
     10 C10        -4.5073  -12.1301   35.0782 C.ar      1 UNK        -0.1150 
     11 C11        -8.7878   -3.9246   38.7180 C.ar      1 UNK         0.0850 
     12 C12       -10.4360   -5.5672   37.9267 C.ar      1 UNK         0.0850 
     13 C13        -5.9363  -10.9099   38.9802 C.2       1 UNK         0.6647 
     14 C14        -7.1593  -10.1208   40.4547 C.2       1 UNK         0.5486 
     15 C15        -8.1027   -7.2368   40.4696 C.2       1 UNK         0.6250 
     16 C16        -4.0086  -12.5538   33.7122 C.3       1 UNK        -0.0650 
     17 C17        -7.2117   -2.2531   39.4185 C.3       1 UNK         0.1100 
     18 C18       -12.0682   -7.1042   37.0627 C.3       1 UNK         0.1100 
     19 C19        -8.2429   -9.4830   41.2699 C.3       1 UNK         0.3050 
     20 N20        -7.1504  -10.3138   39.1354 N.2       1 UNK        -0.7040 
     21 N21        -5.2271  -11.1113   40.0846 N.2       1 UNK        -0.4268 
     22 O22        -7.0674   -7.0300   41.1037 O.2       1 UNK        -0.4300 
     23 O23        -6.0501  -10.5774   41.0874 O.3       1 UNK        -0.1975 
     24 O24        -8.3343   -2.6261   38.6322 O.3       1 UNK        -0.2850 
     25 O25       -11.5153   -5.7968   37.1009 O.3       1 UNK        -0.2850 
     26 O26        -8.7802   -8.3960   40.5257 O.3       1 UNK        -0.3300 
     27 H27        -3.5607  -12.1250   38.3570 H         1 UNK         0.1150 
     28 H28        -7.1888  -10.6372   36.5691 H         1 UNK         0.1150 
     29 H29        -2.7469  -12.8189   36.1342 H         1 UNK         0.1150 
     30 H30        -6.3810  -11.3311   34.3439 H         1 UNK         0.1150 
     31 H31        -7.3633   -4.6881   40.1746 H         1 UNK         0.1150 
     32 H32       -10.2448   -7.5509   38.7843 H         1 UNK         0.1150 
     33 H33       -10.3366   -3.5160   37.2816 H         1 UNK         0.1150 
     34 H34        -4.8404  -12.8205   33.0596 H         1 UNK         0.0600 
     35 H35        -3.4530  -11.7398   33.2460 H         1 UNK         0.0600 
     36 H36        -3.3503  -13.4198   33.7882 H         1 UNK         0.0600 
     37 H37        -6.9739   -1.2059   39.2321 H         1 UNK         0.0300 
     38 H38        -6.3300   -2.8417   39.1606 H         1 UNK         0.0300 
     39 H39        -7.4191   -2.3590   40.4842 H         1 UNK         0.0300 
     40 H40       -12.9009   -7.1213   36.3596 H         1 UNK         0.0300 
     41 H41       -12.4544   -7.4025   38.0382 H         1 UNK         0.0300 
     42 H42       -11.3352   -7.8373   36.7229 H         1 UNK         0.0300 
     43 H43        -9.0248  -10.2184   41.4569 H         1 UNK         0.0300 
     44 H44        -7.8493   -9.1609   42.2352 H         1 UNK         0.0300 
@<TRIPOS>BOND
     1    1    3 ar   
     2    1    8 ar   
     3    1   27 1    
     4    2    4 ar   
     5    2    8 ar   
     6    2   28 1    
     7    3   10 ar   
     8    3   29 1    
     9    4   10 ar   
    10    4   30 1    
    11    5    9 ar   
    12    5   11 ar   
    13    5   31 1    
    14    6    9 ar   
    15    6   12 ar   
    16    6   32 1    
    17    7   11 ar   
    18    7   12 ar   
    19    7   33 1    
    20    8   13 1    
    21    9   15 1    
    22   10   16 1    
    23   11   24 1    
    24   12   25 1    
    25   13   20 1    
    26   13   21 2    
    27   14   19 1    
    28   14   20 2    
    29   14   23 1    
    30   15   22 2    
    31   15   26 1    
    32   16   34 1    
    33   16   35 1    
    34   16   36 1    
    35   17   24 1    
    36   17   37 1    
    37   17   38 1    
    38   17   39 1    
    39   18   25 1    
    40   18   40 1    
    41   18   41 1    
    42   18   42 1    
    43   19   26 1    
    44   19   43 1    
    45   19   44 1    
    46   21   23 1    
@<TRIPOS>SUBSTRUCTURE
     1 UNK         1 GROUP             0       ****    0 ROOT    
@<TRIPOS>MOLECULE
ZINC15183338_125
44   45    1
SMALL
USER_CHARGES


@<TRIPOS>ATOM
      1 C1        -10.2134  -20.0525   36.2369 C.ar      1 UNK        -0.1150 
      2 C2        -10.8657  -18.8037   36.2516 C.ar      1 UNK        -0.1150 
      3 C3         -9.7560  -20.6233   37.4411 C.ar      1 UNK        -0.1150 
      4 C4        -15.9050  -13.4950   38.0171 C.ar      1 UNK        -0.1150 
      5 C5        -14.0870  -12.1855   38.9555 C.ar      1 UNK        -0.1150 
      6 C6        -10.5988  -18.6969   38.6751 C.ar      1 UNK        -0.1150 
      7 C7        -14.6117  -13.4353   38.5765 C.ar      1 UNK        -0.1150 
      8 C8        -11.0606  -18.1216   37.4717 C.ar      1 UNK        -0.1150 
      9 C9        -16.6607  -12.3271   37.8023 C.ar      1 UNK         0.0850 
     10 C10       -14.8182  -11.0007   38.7549 C.ar      1 UNK         0.0850 
     11 C11       -16.0979  -11.0621   38.1361 C.ar      1 UNK         0.0850 
     12 C12        -9.9489  -19.9459   38.6597 C.ar      1 UNK         0.2200 
     13 C13       -13.8146  -14.6812   38.8167 C.2       1 UNK         0.6150 
     14 C14       -18.9375  -11.5958   37.5366 C.3       1 UNK         0.1100 
     15 C15       -15.0263   -8.8702   39.8094 C.3       1 UNK         0.1100 
     16 C16       -16.3022   -9.3287   36.6017 C.3       1 UNK         0.1100 
     17 C17       -11.7666  -16.7793   37.4953 C.3       1 UNK        -0.0050 
     18 C18       -13.2433  -16.9135   37.9070 C.3       1 UNK         0.0800 
     19 N19       -13.9367  -15.6304   37.8812 N.am      1 UNK        -0.5000 
     20 O20       -13.0568  -14.7798   39.7784 O.2       1 UNK        -0.5000 
     21 O21       -17.9035  -12.5229   37.2372 O.3       1 UNK        -0.2850 
     22 O22       -14.2096   -9.8322   39.1552 O.3       1 UNK        -0.2850 
     23 O23       -16.7589   -9.9041   37.8162 O.3       1 UNK        -0.2850 
     24 F24        -9.5116  -20.4967   39.8160 F         1 UNK        -0.2200 
     25 H25       -10.0630  -20.5736   35.3027 H         1 UNK         0.1150 
     26 H26       -11.2130  -18.3740   35.3226 H         1 UNK         0.1150 
     27 H27        -9.2563  -21.5805   37.4355 H         1 UNK         0.1150 
     28 H28       -16.3447  -14.4469   37.7582 H         1 UNK         0.1150 
     29 H29       -13.1086  -12.1324   39.4130 H         1 UNK         0.1150 
     30 H30       -10.7408  -18.1858   39.6166 H         1 UNK         0.1150 
     31 H31       -19.9030  -12.0805   37.3931 H         1 UNK         0.0300 
     32 H32       -18.9050  -10.7375   36.8658 H         1 UNK         0.0300 
     33 H33       -18.8961  -11.2507   38.5709 H         1 UNK         0.0300 
     34 H34       -15.8307   -9.3315   40.3850 H         1 UNK         0.0300 
     35 H35       -15.4555   -8.1654   39.0981 H         1 UNK         0.0300 
     36 H36       -14.4139   -8.2956   40.5038 H         1 UNK         0.0300 
     37 H37       -16.8617   -8.4165   36.3960 H         1 UNK         0.0300 
     38 H38       -16.4534  -10.0113   35.7642 H         1 UNK         0.0300 
     39 H39       -15.2439   -9.0687   36.6520 H         1 UNK         0.0300 
     40 H40       -11.6885  -16.3125   36.5126 H         1 UNK         0.0600 
     41 H41       -11.2370  -16.1225   38.1876 H         1 UNK         0.0600 
     42 H42       -13.7567  -17.5958   37.2290 H         1 UNK         0.0600 
     43 H43       -13.3194  -17.3512   38.9046 H         1 UNK         0.0600 
     44 H44       -14.5513  -15.4362   37.1066 H         1 UNK         0.3000 
@<TRIPOS>BOND
     1    1    2 ar   
     2    1    3 ar   
     3    1   25 1    
     4    2    8 ar   
     5    2   26 1    
     6    3   12 ar   
     7    3   27 1    
     8    4    7 ar   
     9    4    9 ar   
    10    4   28 1    
    11    5    7 ar   
    12    5   10 ar   
    13    5   29 1    
    14    6    8 ar   
    15    6   12 ar   
    16    6   30 1    
    17    7   13 1    
    18    8   17 1    
    19    9   11 ar   
    20    9   21 1    
    21   10   11 ar   
    22   10   22 1    
    23   11   23 1    
    24   12   24 1    
    25   13   19 am   BACKBONE|DICT|INTERRES
    26   13   20 2    
    27   14   21 1    
    28   14   31 1    
    29   14   32 1    
    30   14   33 1    
    31   15   22 1    
    32   15   34 1    
    33   15   35 1    
    34   15   36 1    
    35   16   23 1    
    36   16   37 1    
    37   16   38 1    
    38   16   39 1    
    39   17   18 1    
    40   17   40 1    
    41   17   41 1    
    42   18   19 1    
    43   18   42 1    
    44   18   43 1    
    45   19   44 1    
@<TRIPOS>SUBSTRUCTURE
     1 UNK         1 GROUP             0       ****    0 ROOT    
@<TRIPOS>MOLECULE
ZINC15721891_292
49   51    1
SMALL
USER_CHARGES


@<TRIPOS>ATOM
      1 C1         -3.9938  -10.5686   35.6283 C.ar      1 UNK        -0.1150 
      2 C2         -4.3300  -10.1330   36.9244 C.ar      1 UNK        -0.1150 
      3 C3         -4.6008  -11.7191   35.0921 C.ar      1 UNK        -0.1150 
      4 C4         -5.8801  -11.9974   37.1510 C.ar      1 UNK        -0.1150 
      5 C5         -8.0567   -5.0288   36.6365 C.ar      1 UNK        -0.1150 
      6 C6         -7.5667   -4.2438   39.2713 C.ar      1 UNK        -0.1150 
      7 C7         -6.4900  -10.0160   41.3209 C.2       1 UNK        -0.3376 
      8 C8         -5.2756  -10.8421   37.6991 C.ar      1 UNK         0.0000 
      9 C9         -5.5467  -12.4352   35.8522 C.ar      1 UNK        -0.1150 
     10 C10        -7.3643   -5.9007   37.4965 C.ar      1 UNK        -0.1150 
     11 C11        -7.1236   -5.5130   38.8324 C.ar      1 UNK         0.0850 
     12 C12        -8.5256   -3.7742   37.0706 C.ar      1 UNK         0.0850 
     13 C13        -8.2712   -3.3602   38.4116 C.ar      1 UNK         0.0850 
     14 C14        -5.7593   -8.9569   40.8423 C.2       1 UNK         0.1693 
     15 C15        -5.6194  -10.3643   39.0407 C.2       1 UNK         0.3009 
     16 C16        -6.3051   -6.4932   41.0012 C.2       1 UNK         0.5000 
     17 C17        -6.1998  -13.6759   35.2786 C.3       1 UNK        -0.0650 
     18 C18        -6.8966   -7.2490   36.9705 C.3       1 UNK        -0.0650 
     19 C19       -10.0197   -1.9596   36.4671 C.3       1 UNK         0.1100 
     20 C20        -8.5004   -1.7373   40.1896 C.3       1 UNK         0.1100 
     21 C21        -5.4671   -7.6571   41.5495 C.3       1 UNK        -0.0050 
     22 N22        -5.2595   -9.1806   39.5521 N.2       1 UNK        -0.4803 
     23 N23        -6.4046   -6.4170   39.6618 N.am      1 UNK        -0.3850 
     24 O24        -6.8153   -5.6975   41.7886 O.2       1 UNK        -0.5000 
     25 O25        -9.1919   -3.0515   36.0998 O.3       1 UNK        -0.2850 
     26 O26        -8.6896   -2.1123   38.8324 O.3       1 UNK        -0.2850 
     27 S27        -6.5954  -11.3145   40.1631 S.3       1 UNK         0.0010 
     28 H28        -3.2682  -10.0197   35.0458 H         1 UNK         0.1150 
     29 H29        -3.8544   -9.2495   37.3250 H         1 UNK         0.1150 
     30 H30        -4.3359  -12.0484   34.0973 H         1 UNK         0.1150 
     31 H31        -6.6084  -12.5563   37.7191 H         1 UNK         0.1150 
     32 H32        -8.2484   -5.3222   35.6150 H         1 UNK         0.1150 
     33 H33        -7.3451   -3.9433   40.2806 H         1 UNK         0.1150 
     34 H34        -6.9817  -10.1100   42.2783 H         1 UNK         0.2317 
     35 H35        -5.6335  -14.5635   35.5616 H         1 UNK         0.0600 
     36 H36        -7.2195  -13.7858   35.6487 H         1 UNK         0.0600 
     37 H37        -6.2418  -13.6281   34.1901 H         1 UNK         0.0600 
     38 H38        -5.8120   -7.3341   37.0403 H         1 UNK         0.0600 
     39 H39        -7.3456   -8.0604   37.5444 H         1 UNK         0.0600 
     40 H40        -7.1738   -7.3891   35.9255 H         1 UNK         0.0600 
     41 H41       -10.6406   -1.6840   35.6152 H         1 UNK         0.0300 
     42 H42        -9.4281   -1.0828   36.7311 H         1 UNK         0.0300 
     43 H43       -10.6897   -2.2161   37.2887 H         1 UNK         0.0300 
     44 H44        -8.9397   -0.7536   40.3535 H         1 UNK         0.0300 
     45 H45        -7.4411   -1.6687   40.4408 H         1 UNK         0.0300 
     46 H46        -8.9921   -2.4332   40.8710 H         1 UNK         0.0300 
     47 H47        -5.6591   -7.7522   42.6187 H         1 UNK         0.0600 
     48 H48        -4.4131   -7.3964   41.4517 H         1 UNK         0.0600 
     49 H49        -5.9734   -7.2002   39.1853 H         1 UNK         0.3000 
@<TRIPOS>BOND
     1    1    2 ar   
     2    1    3 ar   
     3    1   28 1    
     4    2    8 ar   
     5    2   29 1    
     6    3    9 ar   
     7    3   30 1    
     8    4    8 ar   
     9    4    9 ar   
    10    4   31 1    
    11    5   10 ar   
    12    5   12 ar   
    13    5   32 1    
    14    6   11 ar   
    15    6   13 ar   
    16    6   33 1    
    17    7   14 2    
    18    7   27 1    
    19    7   34 1    
    20    8   15 1    
    21    9   17 1    
    22   10   11 ar   
    23   10   18 1    
    24   11   23 1    
    25   12   13 ar   
    26   12   25 1    
    27   13   26 1    
    28   14   21 1    
    29   14   22 1    
    30   15   22 2    
    31   15   27 1    
    32   16   21 1    
    33   16   23 am   BACKBONE|DICT|INTERRES
    34   16   24 2    
    35   17   35 1    
    36   17   36 1    
    37   17   37 1    
    38   18   38 1    
    39   18   39 1    
    40   18   40 1    
    41   19   25 1    
    42   19   41 1    
    43   19   42 1    
    44   19   43 1    
    45   20   26 1    
    46   20   44 1    
    47   20   45 1    
    48   20   46 1    
    49   21   47 1    
    50   21   48 1    
    51   23   49 1    
@<TRIPOS>SUBSTRUCTURE
     1 UNK         1 GROUP             0       ****    0 ROOT    
@<TRIPOS>MOLECULE
ZINC15833968_245
48   51    1
SMALL
USER_CHARGES


@<TRIPOS>ATOM
      1 C1         -7.9125   -6.0285   38.4829 C.ar      1 UNK        -0.1150 
      2 C2         -6.4408   -4.2540   39.2752 C.ar      1 UNK        -0.1150 
      3 C3         -6.8636   -5.5973   39.3209 C.ar      1 UNK         0.0000 
      4 C4         -8.5286   -5.1309   37.5805 C.ar      1 UNK         0.0850 
      5 C5         -7.0504   -3.3344   38.3885 C.ar      1 UNK         0.0850 
      6 C6         -8.0869   -3.7896   37.5373 C.ar      1 UNK         0.0850 
      7 C7         -6.1999   -6.5394   40.2156 C.2       1 UNK         0.5614 
      8 C8         -5.8263   -8.3852   41.1516 C.2       1 UNK         0.7139 
      9 C9         -4.8440  -11.0409   38.4963 C.ar      1 UNK        -0.1717 
     10 C10        -4.4757   -8.1151   34.8680 C.2       1 UNK        -0.1075 
     11 C11        -5.9643  -10.3389   38.7697 C.ar      1 UNK         0.1225 
     12 C12        -3.8249   -9.1395   35.4276 C.2       1 UNK        -0.0732 
     13 C13        -4.0208  -10.7235   37.3307 C.ar      1 UNK         0.5567 
     14 C14        -5.6545   -8.9844   36.9036 C.ar      1 UNK         0.4890 
     15 C15        -2.5087   -9.6895   34.8926 C.3       1 UNK        -0.1800 
     16 C16        -9.9966   -6.8363   36.7265 C.3       1 UNK         0.1100 
     17 C17        -5.6761   -1.5203   39.1740 C.3       1 UNK         0.1100 
     18 C18        -7.9115   -2.5886   35.5379 C.3       1 UNK         0.1100 
     19 C19        -6.8271  -10.6392   39.9832 C.3       1 UNK         0.0475 
     20 N20        -5.0184   -6.4099   40.8282 N.2       1 UNK        -0.3751 
     21 N21        -4.7752   -7.6189   41.4420 N.2       1 UNK        -0.3751 
     22 N22        -6.3782   -9.3069   37.9275 N.2       1 UNK        -0.4815 
     23 N23        -4.4594   -9.6613   36.5780 N.pl3     1 UNK        -0.0493 
     24 O24        -3.0157  -11.3871   37.0764 O.2       1 UNK        -0.5000 
     25 O25        -6.7798   -7.7485   40.4297 O.3       1 UNK        -0.3726 
     26 O26        -9.5377   -5.4927   36.7117 O.3       1 UNK        -0.2850 
     27 O27        -6.6912   -2.0043   38.3071 O.3       1 UNK        -0.2850 
     28 O28        -8.7028   -2.9285   36.6649 O.3       1 UNK        -0.2850 
     29 S29        -5.9502   -7.6671   35.6867 S.3       1 UNK        -0.0150 
     30 S30        -6.0703  -10.0832   41.5418 S.3       1 UNK        -0.3200 
     31 H31        -8.2174   -7.0626   38.5306 H         1 UNK         0.1150 
     32 H32        -5.6394   -3.9526   39.9330 H         1 UNK         0.1150 
     33 H33        -4.5297  -11.8401   39.1522 H         1 UNK         0.1150 
     34 H34        -4.1594   -7.5716   33.9892 H         1 UNK         0.1150 
     35 H35        -1.7255   -9.6408   35.6505 H         1 UNK         0.0600 
     36 H36        -2.1670   -9.1126   34.0324 H         1 UNK         0.0600 
     37 H37        -2.6213  -10.7257   34.5706 H         1 UNK         0.0600 
     38 H38       -10.7937   -6.9508   35.9920 H         1 UNK         0.0300 
     39 H39       -10.4056   -7.1076   37.7007 H         1 UNK         0.0300 
     40 H40        -9.2007   -7.5332   36.4602 H         1 UNK         0.0300 
     41 H41        -5.5248   -0.4567   38.9905 H         1 UNK         0.0300 
     42 H42        -4.7247   -2.0231   38.9956 H         1 UNK         0.0300 
     43 H43        -5.9571   -1.6363   40.2216 H         1 UNK         0.0300 
     44 H44        -8.5174   -2.0269   34.8272 H         1 UNK         0.0300 
     45 H45        -7.5449   -3.4820   35.0302 H         1 UNK         0.0300 
     46 H46        -7.0585   -1.9671   35.8097 H         1 UNK         0.0300 
     47 H47        -7.0041  -11.7132   40.0447 H         1 UNK         0.0600 
     48 H48        -7.8054  -10.1688   39.8742 H         1 UNK         0.0600 
@<TRIPOS>BOND
     1    1    3 ar   
     2    1    4 ar   
     3    1   31 1    
     4    2    3 ar   
     5    2    5 ar   
     6    2   32 1    
     7    3    7 1    
     8    4    6 ar   
     9    4   26 1    
    10    5    6 ar   
    11    5   27 1    
    12    6   28 1    
    13    7   20 2    
    14    7   25 1    
    15    8   21 2    
    16    8   25 1    
    17    8   30 1    
    18    9   11 ar   
    19    9   13 ar   
    20    9   33 1    
    21   10   12 2    
    22   10   29 1    
    23   10   34 1    
    24   11   19 1    
    25   11   22 ar   
    26   12   15 1    
    27   12   23 1    
    28   13   23 ar   
    29   13   24 2    
    30   14   22 ar   
    31   14   23 ar   
    32   14   29 1    
    33   15   35 1    
    34   15   36 1    
    35   15   37 1    
    36   16   26 1    
    37   16   38 1    
    38   16   39 1    
    39   16   40 1    
    40   17   27 1    
    41   17   41 1    
    42   17   42 1    
    43   17   43 1    
    44   18   28 1    
    45   18   44 1    
    46   18   45 1    
    47   18   46 1    
    48   19   30 1    
    49   19   47 1    
    50   19   48 1    
    51   20   21 1    
@<TRIPOS>SUBSTRUCTURE
     1 UNK         1 GROUP             0       ****    0 ROOT    
@<TRIPOS>MOLECULE
ZINC15841765_26
47   50    1
SMALL
USER_CHARGES


@<TRIPOS>ATOM
      1 C1         -4.3026   -9.7658   34.7125 C.ar      1 UNK        -0.2060 
      2 C2         -4.7585   -8.4458   34.5394 C.ar      1 UNK        -0.0433 
      3 C3         -4.2745  -10.3365   35.9990 C.ar      1 UNK        -0.1673 
      4 C4         -5.1864   -7.6991   35.6543 C.ar      1 UNK        -0.4407 
      5 C5         -4.6834  -10.1470   38.4024 C.ar      1 UNK         0.0486 
      6 C6         -6.7275   -4.0442   39.5737 C.ar      1 UNK        -0.1150 
      7 C7         -8.0343   -5.9222   38.7375 C.ar      1 UNK        -0.1150 
      8 C8         -4.7061   -9.5838   37.1111 C.ar      1 UNK        -0.1736 
      9 C9         -7.0821   -5.4070   39.6433 C.ar      1 UNK        -0.1150 
     10 C10        -5.1386   -9.3408   39.4564 C.ar      1 UNK        -0.4029 
     11 C11        -5.1684   -8.2469   36.9508 C.ar      1 UNK         0.7341 
     12 C12        -7.2799   -3.2016   38.5797 C.ar      1 UNK         0.0850 
     13 C13        -8.5797   -5.1058   37.7184 C.ar      1 UNK         0.0850 
     14 C14        -8.1957   -3.7468   37.6525 C.ar      1 UNK         0.0850 
     15 C15        -5.5948   -8.0438   39.2262 C.ar      1 UNK         0.5705 
     16 C16        -6.5148   -6.2616   40.7436 C.2       1 UNK         0.6150 
     17 C17        -5.1892   -9.7109   40.9099 C.3       1 UNK        -0.0050 
     18 C18        -5.6576   -8.4020   41.5727 C.3       1 UNK        -0.0500 
     19 C19        -6.1158   -1.2728   39.4174 C.3       1 UNK         0.1100 
     20 C20        -9.7609   -6.9499   36.7299 C.3       1 UNK         0.1100 
     21 C21        -8.0526   -3.0116   35.4504 C.3       1 UNK         0.1100 
     22 N22        -5.5913   -7.4998   37.9931 N.ar      1 UNK        -0.7311 
     23 N23        -5.9819   -7.4806   40.4724 N.am      1 UNK        -0.1550 
     24 O24        -6.5281   -5.8073   41.8903 O.2       1 UNK        -0.5000 
     25 O25        -6.9707   -1.8630   38.4503 O.3       1 UNK        -0.2850 
     26 O26        -9.4780   -5.5600   36.7744 O.3       1 UNK        -0.2850 
     27 O27        -8.7340   -2.9325   36.6897 O.3       1 UNK        -0.2850 
     28 H28        -3.9735  -10.3401   33.8564 H         1 UNK         0.1554 
     29 H29        -4.7801   -8.0050   33.5527 H         1 UNK         0.1388 
     30 H30        -3.9222  -11.3498   36.1261 H         1 UNK         0.1528 
     31 H31        -5.5377   -6.6864   35.5266 H         1 UNK         0.2022 
     32 H32        -4.3314  -11.1529   38.5763 H         1 UNK         0.1325 
     33 H33        -6.0262   -3.6666   40.3023 H         1 UNK         0.1150 
     34 H34        -8.3169   -6.9589   38.8298 H         1 UNK         0.1150 
     35 H35        -5.9033  -10.5202   41.0681 H         1 UNK         0.0600 
     36 H36        -4.2103  -10.0264   41.2733 H         1 UNK         0.0600 
     37 H37        -6.5203   -8.5681   42.2202 H         1 UNK         0.0600 
     38 H38        -4.8602   -7.9707   42.1805 H         1 UNK         0.0600 
     39 H39        -6.0052   -0.2111   39.1973 H         1 UNK         0.0300 
     40 H40        -5.1210   -1.7194   39.3952 H         1 UNK         0.0300 
     41 H41        -6.5302   -1.3594   40.4227 H         1 UNK         0.0300 
     42 H42       -10.4290   -7.1530   35.8931 H         1 UNK         0.0300 
     43 H43       -10.2619   -7.2837   37.6394 H         1 UNK         0.0300 
     44 H44        -8.8536   -7.5370   36.5781 H         1 UNK         0.0300 
     45 H45        -8.5108   -2.3250   34.7389 H         1 UNK         0.0300 
     46 H46        -8.1034   -4.0161   35.0286 H         1 UNK         0.0300 
     47 H47        -7.0042   -2.7307   35.5607 H         1 UNK         0.0300 
@<TRIPOS>BOND
     1    1    2 ar   
     2    1    3 ar   
     3    1   28 1    
     4    2    4 ar   
     5    2   29 1    
     6    3    8 ar   
     7    3   30 1    
     8    4   11 ar   
     9    4   31 1    
    10    5    8 ar   
    11    5   10 ar   
    12    5   32 1    
    13    6    9 ar   
    14    6   12 ar   
    15    6   33 1    
    16    7    9 ar   
    17    7   13 ar   
    18    7   34 1    
    19    8   11 ar   
    20    9   16 1    
    21   10   15 ar   
    22   10   17 1    
    23   11   22 ar   
    24   12   14 ar   
    25   12   25 1    
    26   13   14 ar   
    27   13   26 1    
    28   14   27 1    
    29   15   22 ar   
    30   15   23 1    
    31   16   23 am   BACKBONE|DICT|INTERRES
    32   16   24 2    
    33   17   18 1    
    34   17   35 1    
    35   17   36 1    
    36   18   23 1    
    37   18   37 1    
    38   18   38 1    
    39   19   25 1    
    40   19   39 1    
    41   19   40 1    
    42   19   41 1    
    43   20   26 1    
    44   20   42 1    
    45   20   43 1    
    46   20   44 1    
    47   21   27 1    
    48   21   45 1    
    49   21   46 1    
    50   21   47 1    
@<TRIPOS>SUBSTRUCTURE
     1 UNK         1 GROUP             0       ****    0 ROOT    
@<TRIPOS>MOLECULE
ZINC15842024_17
50   53    1
SMALL
USER_CHARGES


@<TRIPOS>ATOM
      1 C1         -4.1912   -9.6739   34.7282 C.ar      1 UNK        -0.2060 
      2 C2         -4.1590  -10.2475   36.0115 C.ar      1 UNK        -0.1673 
      3 C3         -4.7053   -8.3769   34.5510 C.ar      1 UNK        -0.0433 
      4 C4         -4.6117  -10.0935   38.4039 C.ar      1 UNK         0.0486 
      5 C5         -6.7052   -4.0668   39.5921 C.ar      1 UNK        -0.1150 
      6 C6         -8.0601   -5.9006   38.7350 C.ar      1 UNK        -0.1150 
      7 C7         -4.6417   -9.5189   37.1175 C.ar      1 UNK        -0.1736 
      8 C8         -7.1090   -5.4153   39.6576 C.ar      1 UNK        -0.1150 
      9 C9         -5.1127   -9.3194   39.4607 C.ar      1 UNK        -0.4029 
     10 C10        -5.1885   -7.6437   35.6553 C.ar      1 UNK        -0.3535 
     11 C11        -5.1615   -8.2016   36.9574 C.ar      1 UNK         0.7341 
     12 C12        -7.1969   -3.2136   38.5758 C.ar      1 UNK         0.0850 
     13 C13        -8.5488   -5.0730   37.6962 C.ar      1 UNK         0.0850 
     14 C14        -8.1019   -3.7321   37.6228 C.ar      1 UNK         0.0850 
     15 C15        -5.6172   -8.0405   39.2377 C.ar      1 UNK         0.5705 
     16 C16        -6.5844   -6.2901   40.7621 C.2       1 UNK         0.6150 
     17 C17        -5.1660   -9.7062   40.9096 C.3       1 UNK        -0.0050 
     18 C18        -5.7090   -8.4294   41.5784 C.3       1 UNK        -0.0500 
     19 C19        -5.7487   -6.2471   35.4319 C.3       1 UNK        -0.0650 
     20 C20        -5.9977   -1.3186   39.4411 C.3       1 UNK         0.1100 
     21 C21        -9.8174   -6.8725   36.7291 C.3       1 UNK         0.1100 
     22 C22        -7.9829   -3.1475   35.3653 C.3       1 UNK         0.1100 
     23 N23        -5.6274   -7.4896   38.0096 N.ar      1 UNK        -0.7311 
     24 N24        -6.0362   -7.5012   40.4846 N.am      1 UNK        -0.1550 
     25 O25        -6.6411   -5.8576   41.9158 O.2       1 UNK        -0.5000 
     26 O26        -6.8322   -1.8891   38.4448 O.3       1 UNK        -0.2850 
     27 O27        -9.4491   -5.5018   36.7419 O.3       1 UNK        -0.2850 
     28 O28        -8.5634   -2.8994   36.6347 O.3       1 UNK        -0.2850 
     29 H29        -3.8221  -10.2286   33.8758 H         1 UNK         0.1554 
     30 H30        -3.7641  -11.2446   36.1408 H         1 UNK         0.1528 
     31 H31        -4.7281   -7.9463   33.5600 H         1 UNK         0.1388 
     32 H32        -4.2193  -11.0849   38.5730 H         1 UNK         0.1325 
     33 H33        -6.0080   -3.7115   40.3357 H         1 UNK         0.1150 
     34 H34        -8.3812   -6.9260   38.8282 H         1 UNK         0.1150 
     35 H35        -5.8387  -10.5533   41.0507 H         1 UNK         0.0600 
     36 H36        -4.1765   -9.9738   41.2829 H         1 UNK         0.0600 
     37 H37        -6.5869   -8.6415   42.1909 H         1 UNK         0.0600 
     38 H38        -4.9512   -7.9804   42.2230 H         1 UNK         0.0600 
     39 H39        -6.8259   -6.2472   35.5996 H         1 UNK         0.0600 
     40 H40        -5.3010   -5.5366   36.1283 H         1 UNK         0.0600 
     41 H41        -5.5601   -5.8904   34.4197 H         1 UNK         0.0600 
     42 H42        -5.8453   -0.2626   39.2191 H         1 UNK         0.0300 
     43 H43        -5.0173   -1.7962   39.4610 H         1 UNK         0.0300 
     44 H44        -6.4536   -1.3846   40.4300 H         1 UNK         0.0300 
     45 H45       -10.4795   -7.0583   35.8836 H         1 UNK         0.0300 
     46 H46       -10.3569   -7.1469   37.6364 H         1 UNK         0.0300 
     47 H47        -8.9463   -7.5196   36.6140 H         1 UNK         0.0300 
     48 H48        -8.3130   -2.3842   34.6611 H         1 UNK         0.0300 
     49 H49        -8.2766   -4.1176   34.9644 H         1 UNK         0.0300 
     50 H50        -6.8938   -3.1067   35.4164 H         1 UNK         0.0300 
@<TRIPOS>BOND
     1    1    2 ar   
     2    1    3 ar   
     3    1   29 1    
     4    2    7 ar   
     5    2   30 1    
     6    3   10 ar   
     7    3   31 1    
     8    4    7 ar   
     9    4    9 ar   
    10    4   32 1    
    11    5    8 ar   
    12    5   12 ar   
    13    5   33 1    
    14    6    8 ar   
    15    6   13 ar   
    16    6   34 1    
    17    7   11 ar   
    18    8   16 1    
    19    9   15 ar   
    20    9   17 1    
    21   10   11 ar   
    22   10   19 1    
    23   11   23 ar   
    24   12   14 ar   
    25   12   26 1    
    26   13   14 ar   
    27   13   27 1    
    28   14   28 1    
    29   15   23 ar   
    30   15   24 1    
    31   16   24 am   BACKBONE|DICT|INTERRES
    32   16   25 2    
    33   17   18 1    
    34   17   35 1    
    35   17   36 1    
    36   18   24 1    
    37   18   37 1    
    38   18   38 1    
    39   19   39 1    
    40   19   40 1    
    41   19   41 1    
    42   20   26 1    
    43   20   42 1    
    44   20   43 1    
    45   20   44 1    
    46   21   27 1    
    47   21   45 1    
    48   21   46 1    
    49   21   47 1    
    50   22   28 1    
    51   22   48 1    
    52   22   49 1    
    53   22   50 1    
@<TRIPOS>SUBSTRUCTURE
     1 UNK         1 GROUP             0       ****    0 ROOT    
@<TRIPOS>MOLECULE
ZINC15859078_7
44   46    1
SMALL
USER_CHARGES


@<TRIPOS>ATOM
      1 C1         -4.9115  -12.1229   38.3452 C.ar      1 UNK        -0.1150 
      2 C2         -5.8173  -10.5449   36.7405 C.ar      1 UNK        -0.1150 
      3 C3         -4.5577  -12.9930   37.2941 C.ar      1 UNK        -0.1150 
      4 C4         -5.4658  -11.4115   35.6858 C.ar      1 UNK        -0.1150 
      5 C5         -8.7417   -6.7400   38.5089 C.ar      1 UNK        -0.1150 
      6 C6         -7.7243   -4.7903   39.5555 C.ar      1 UNK        -0.1150 
      7 C7         -5.5478  -10.8846   38.0887 C.ar      1 UNK         0.0000 
      8 C8         -7.9190   -6.1869   39.5140 C.ar      1 UNK        -0.1150 
      9 C9         -9.3287   -5.9166   37.5194 C.ar      1 UNK         0.0850 
     10 C10        -8.3082   -3.9452   38.5816 C.ar      1 UNK         0.0850 
     11 C11        -9.0974   -4.5239   37.5591 C.ar      1 UNK         0.0850 
     12 C12        -4.8357  -12.6373   35.9628 C.ar      1 UNK         0.2200 
     13 C13        -5.9196   -9.9753   39.1980 C.ar      1 UNK         0.5806 
     14 C14        -6.1507   -9.2175   41.0978 C.ar      1 UNK         0.5924 
     15 C15        -7.3048   -7.0494   40.5837 C.2       1 UNK         0.7375 
     16 C16       -10.3611   -7.7920   36.4202 C.3       1 UNK         0.1100 
     17 C17        -7.4183   -1.9656   39.6234 C.3       1 UNK         0.1100 
     18 C18        -8.7783   -3.2622   35.6188 C.3       1 UNK         0.1100 
     19 N19        -5.6501  -10.2875   40.4988 N.2       1 UNK        -0.6329 
     20 N20        -6.5388   -8.8205   38.9720 N.2       1 UNK        -0.5282 
     21 N21        -6.6898   -8.3255   40.2294 N.pl3     1 UNK         0.0656 
     22 N22        -6.1052   -9.0873   42.4747 N.pl3     1 UNK        -0.9200 
     23 O23        -7.2623   -6.6465   41.7500 O.2       1 UNK        -0.5000 
     24 O24       -10.1209   -6.3951   36.4959 O.3       1 UNK        -0.2850 
     25 O25        -8.1589   -2.5733   38.5756 O.3       1 UNK        -0.2850 
     26 O26        -9.6840   -3.7355   36.6019 O.3       1 UNK        -0.2850 
     27 F27        -4.4985  -13.4711   34.9519 F         1 UNK        -0.2200 
     28 H28        -4.6913  -12.4119   39.3629 H         1 UNK         0.1150 
     29 H29        -6.3000   -9.6067   36.5081 H         1 UNK         0.1150 
     30 H30        -4.0731  -13.9345   37.5072 H         1 UNK         0.1150 
     31 H31        -5.6777  -11.1389   34.6625 H         1 UNK         0.1150 
     32 H32        -8.9120   -7.8054   38.5100 H         1 UNK         0.1150 
     33 H33        -7.1188   -4.3867   40.3533 H         1 UNK         0.1150 
     34 H34       -10.9899   -8.0011   35.5548 H         1 UNK         0.0300 
     35 H35       -10.8872   -8.1541   37.3044 H         1 UNK         0.0300 
     36 H36        -9.4325   -8.3509   36.2955 H         1 UNK         0.0300 
     37 H37        -7.4195   -0.8848   39.4824 H         1 UNK         0.0300 
     38 H38        -6.3791   -2.2966   39.6215 H         1 UNK         0.0300 
     39 H39        -7.8631   -2.1702   40.5982 H         1 UNK         0.0300 
     40 H40        -9.3325   -2.7480   34.8338 H         1 UNK         0.0300 
     41 H41        -8.2333   -4.0867   35.1568 H         1 UNK         0.0300 
     42 H42        -8.0580   -2.5567   36.0329 H         1 UNK         0.0300 
     43 H43        -5.6535   -9.7834   43.0479 H         1 UNK         0.3600 
     44 H44        -6.4449   -8.2454   42.9270 H         1 UNK         0.3600 
@<TRIPOS>BOND
     1    1    3 ar   
     2    1    7 ar   
     3    1   28 1    
     4    2    4 ar   
     5    2    7 ar   
     6    2   29 1    
     7    3   12 ar   
     8    3   30 1    
     9    4   12 ar   
    10    4   31 1    
    11    5    8 ar   
    12    5    9 ar   
    13    5   32 1    
    14    6    8 ar   
    15    6   10 ar   
    16    6   33 1    
    17    7   13 1    
    18    8   15 1    
    19    9   11 ar   
    20    9   24 1    
    21   10   11 ar   
    22   10   25 1    
    23   11   26 1    
    24   12   27 1    
    25   13   19 ar   
    26   13   20 ar   
    27   14   19 ar   
    28   14   21 ar   
    29   14   22 1    
    30   15   21 1    
    31   15   23 2    
    32   16   24 1    
    33   16   34 1    
    34   16   35 1    
    35   16   36 1    
    36   17   25 1    
    37   17   37 1    
    38   17   38 1    
    39   17   39 1    
    40   18   26 1    
    41   18   40 1    
    42   18   41 1    
    43   18   42 1    
    44   20   21 ar   
    45   22   43 1    
    46   22   44 1    
@<TRIPOS>SUBSTRUCTURE
     1 UNK         1 GROUP             0       ****    0 ROOT    
@<TRIPOS>MOLECULE
ZINC15859080_7
44   46    1
SMALL
USER_CHARGES


@<TRIPOS>ATOM
      1 C1         -4.9101  -12.1208   38.3447 C.ar      1 UNK        -0.1150 
      2 C2         -5.8176  -10.5433   36.7409 C.ar      1 UNK        -0.1150 
      3 C3         -4.5553  -12.9902   37.2938 C.ar      1 UNK        -0.1150 
      4 C4         -5.4653  -11.4089   35.6857 C.ar      1 UNK        -0.1150 
      5 C5         -8.7428   -6.7406   38.5096 C.ar      1 UNK        -0.1150 
      6 C6         -7.7271   -4.7902   39.5567 C.ar      1 UNK        -0.1150 
      7 C7         -5.5479  -10.8833   38.0889 C.ar      1 UNK         0.0000 
      8 C8         -7.9211   -6.1869   39.5152 C.ar      1 UNK        -0.1150 
      9 C9         -9.3297   -5.9178   37.5196 C.ar      1 UNK         0.0850 
     10 C10        -8.3109   -3.9456   38.5821 C.ar      1 UNK         0.0850 
     11 C11        -9.0990   -4.5249   37.5591 C.ar      1 UNK         0.0850 
     12 C12        -4.8331  -12.6344   35.9620 C.ar      1 UNK         0.1800 
     13 C13        -5.9207   -9.9750   39.1986 C.ar      1 UNK         0.5806 
     14 C14        -6.1512   -9.2172   41.0986 C.ar      1 UNK         0.5924 
     15 C15        -7.3074   -7.0498   40.5851 C.2       1 UNK         0.7375 
     16 C16       -10.3584   -7.7954   36.4195 C.3       1 UNK         0.1100 
     17 C17        -7.4234   -1.9651   39.6242 C.3       1 UNK         0.1100 
     18 C18        -8.7784   -3.2607   35.6201 C.3       1 UNK         0.1100 
     19 N19        -5.6499  -10.2867   40.4994 N.2       1 UNK        -0.6329 
     20 N20        -6.5419   -8.8211   38.9730 N.2       1 UNK        -0.5282 
     21 N21        -6.6919   -8.3258   40.2304 N.pl3     1 UNK         0.0656 
     22 N22        -6.1051   -9.0863   42.4755 N.pl3     1 UNK        -0.9200 
     23 O23        -7.2655   -6.6473   41.7515 O.2       1 UNK        -0.5000 
     24 O24       -10.1204   -6.3979   36.4957 O.3       1 UNK        -0.2850 
     25 O25        -8.1626   -2.5735   38.5761 O.3       1 UNK        -0.2850 
     26 O26        -9.6848   -3.7369   36.6011 O.3       1 UNK        -0.2850 
     27 Cl27       -4.3994  -13.6951   34.6736 Cl        1 UNK        -0.1800 
     28 H28        -4.6892  -12.4093   39.3624 H         1 UNK         0.1150 
     29 H29        -6.3002   -9.6048   36.5089 H         1 UNK         0.1150 
     30 H30        -4.0696  -13.9307   37.5095 H         1 UNK         0.1150 
     31 H31        -5.6783  -11.1332   34.6632 H         1 UNK         0.1150 
     32 H32        -8.9125   -7.8061   38.5104 H         1 UNK         0.1150 
     33 H33        -7.1226   -4.3863   40.3550 H         1 UNK         0.1150 
     34 H34       -10.9860   -8.0052   35.5536 H         1 UNK         0.0300 
     35 H35       -10.8847   -8.1589   37.3031 H         1 UNK         0.0300 
     36 H36        -9.4290   -8.3529   36.2950 H         1 UNK         0.0300 
     37 H37        -7.4254   -0.8843   39.4837 H         1 UNK         0.0300 
     38 H38        -6.3838   -2.2951   39.6221 H         1 UNK         0.0300 
     39 H39        -7.8683   -2.1709   40.5989 H         1 UNK         0.0300 
     40 H40        -9.3327   -2.7477   34.8344 H         1 UNK         0.0300 
     41 H41        -8.2304   -4.0837   35.1588 H         1 UNK         0.0300 
     42 H42        -8.0605   -2.5534   36.0355 H         1 UNK         0.0300 
     43 H43        -5.6541   -9.7824   43.0493 H         1 UNK         0.3600 
     44 H44        -6.4431   -8.2435   42.9271 H         1 UNK         0.3600 
@<TRIPOS>BOND
     1    1    3 ar   
     2    1    7 ar   
     3    1   28 1    
     4    2    4 ar   
     5    2    7 ar   
     6    2   29 1    
     7    3   12 ar   
     8    3   30 1    
     9    4   12 ar   
    10    4   31 1    
    11    5    8 ar   
    12    5    9 ar   
    13    5   32 1    
    14    6    8 ar   
    15    6   10 ar   
    16    6   33 1    
    17    7   13 1    
    18    8   15 1    
    19    9   11 ar   
    20    9   24 1    
    21   10   11 ar   
    22   10   25 1    
    23   11   26 1    
    24   12   27 1    
    25   13   19 ar   
    26   13   20 ar   
    27   14   19 ar   
    28   14   21 ar   
    29   14   22 1    
    30   15   21 1    
    31   15   23 2    
    32   16   24 1    
    33   16   34 1    
    34   16   35 1    
    35   16   36 1    
    36   17   25 1    
    37   17   37 1    
    38   17   38 1    
    39   17   39 1    
    40   18   26 1    
    41   18   40 1    
    42   18   41 1    
    43   18   42 1    
    44   20   21 ar   
    45   22   43 1    
    46   22   44 1    
@<TRIPOS>SUBSTRUCTURE
     1 UNK         1 GROUP             0       ****    0 ROOT    
@<TRIPOS>MOLECULE
ZINC15859087_137
44   46    1
SMALL
USER_CHARGES


@<TRIPOS>ATOM
      1 C1         -5.5511  -13.1254   37.2077 C.ar      1 UNK        -0.1150 
      2 C2         -4.8940  -12.6928   36.0425 C.ar      1 UNK        -0.1150 
      3 C3         -5.8440  -12.2023   38.2300 C.ar      1 UNK        -0.1150 
      4 C4         -4.5270  -11.3412   35.9109 C.ar      1 UNK        -0.1150 
      5 C5         -7.7087   -4.7705   39.5769 C.ar      1 UNK        -0.1150 
      6 C6         -8.7379   -6.7287   38.5566 C.ar      1 UNK        -0.1150 
      7 C7         -5.4942  -10.8377   38.1105 C.ar      1 UNK         0.0000 
      8 C8         -7.9026   -6.1675   39.5472 C.ar      1 UNK        -0.1150 
      9 C9         -8.3086   -3.9337   38.6056 C.ar      1 UNK         0.0850 
     10 C10        -9.3449   -5.9124   37.5730 C.ar      1 UNK         0.0850 
     11 C11        -9.1182   -4.5188   37.6051 C.ar      1 UNK         0.0850 
     12 C12        -4.8184  -10.4164   36.9345 C.ar      1 UNK         0.1800 
     13 C13        -5.8450   -9.9187   39.2110 C.ar      1 UNK         0.5806 
     14 C14        -6.0923   -9.1822   41.1152 C.ar      1 UNK         0.5924 
     15 C15        -7.2704   -7.0235   40.6118 C.2       1 UNK         0.7375 
     16 C16        -7.3682   -1.9482   39.5851 C.3       1 UNK         0.1100 
     17 C17       -10.3544   -7.8009   36.4766 C.3       1 UNK         0.1100 
     18 C18        -8.8601   -3.4037   35.5787 C.3       1 UNK         0.1100 
     19 N19        -5.5851  -10.2464   40.5102 N.2       1 UNK        -0.6329 
     20 N20        -6.5129   -8.7905   38.9950 N.2       1 UNK        -0.5282 
     21 N21        -6.6493   -8.2948   40.2529 N.pl3     1 UNK         0.0656 
     22 N22        -6.0420   -9.0555   42.4925 N.pl3     1 UNK        -0.9200 
     23 O23        -7.2191   -6.6194   41.7775 O.2       1 UNK        -0.5000 
     24 O24        -8.1520   -2.5631   38.5743 O.3       1 UNK        -0.2850 
     25 O25       -10.1534   -6.3984   36.5660 O.3       1 UNK        -0.2850 
     26 O26        -9.7169   -3.7259   36.6606 O.3       1 UNK        -0.2850 
     27 Cl27       -4.2978   -8.7810   36.7156 Cl        1 UNK        -0.1800 
     28 H28        -5.8300  -14.1636   37.3196 H         1 UNK         0.1150 
     29 H29        -4.6652  -13.3960   35.2544 H         1 UNK         0.1150 
     30 H30        -6.3475  -12.5398   39.1247 H         1 UNK         0.1150 
     31 H31        -4.0112  -11.0088   35.0218 H         1 UNK         0.1150 
     32 H32        -7.0889   -4.3605   40.3602 H         1 UNK         0.1150 
     33 H33        -8.9026   -7.7948   38.5644 H         1 UNK         0.1150 
     34 H34        -7.3530   -0.8709   39.4205 H         1 UNK         0.0300 
     35 H35        -6.3361   -2.3001   39.5596 H         1 UNK         0.0300 
     36 H36        -7.7878   -2.1239   40.5767 H         1 UNK         0.0300 
     37 H37       -10.9910   -8.0185   35.6192 H         1 UNK         0.0300 
     38 H38       -10.8556   -8.1890   37.3642 H         1 UNK         0.0300 
     39 H39        -9.4123   -8.3312   36.3304 H         1 UNK         0.0300 
     40 H40        -9.3957   -2.7804   34.8631 H         1 UNK         0.0300 
     41 H41        -8.5307   -4.3046   35.0588 H         1 UNK         0.0300 
     42 H42        -7.9804   -2.8514   35.9115 H         1 UNK         0.0300 
     43 H43        -5.5624   -9.7388   43.0582 H         1 UNK         0.3600 
     44 H44        -6.3745   -8.2114   42.9459 H         1 UNK         0.3600 
@<TRIPOS>BOND
     1    1    2 ar   
     2    1    3 ar   
     3    1   28 1    
     4    2    4 ar   
     5    2   29 1    
     6    3    7 ar   
     7    3   30 1    
     8    4   12 ar   
     9    4   31 1    
    10    5    8 ar   
    11    5    9 ar   
    12    5   32 1    
    13    6    8 ar   
    14    6   10 ar   
    15    6   33 1    
    16    7   12 ar   
    17    7   13 1    
    18    8   15 1    
    19    9   11 ar   
    20    9   24 1    
    21   10   11 ar   
    22   10   25 1    
    23   11   26 1    
    24   12   27 1    
    25   13   19 ar   
    26   13   20 ar   
    27   14   19 ar   
    28   14   21 ar   
    29   14   22 1    
    30   15   21 1    
    31   15   23 2    
    32   16   24 1    
    33   16   34 1    
    34   16   35 1    
    35   16   36 1    
    36   17   25 1    
    37   17   37 1    
    38   17   38 1    
    39   17   39 1    
    40   18   26 1    
    41   18   40 1    
    42   18   41 1    
    43   18   42 1    
    44   20   21 ar   
    45   22   43 1    
    46   22   44 1    
@<TRIPOS>SUBSTRUCTURE
     1 UNK         1 GROUP             0       ****    0 ROOT    
@<TRIPOS>MOLECULE
ZINC16011568_65
47   49    1
SMALL
USER_CHARGES


@<TRIPOS>ATOM
      1 C1         -4.5579  -10.1741   34.8115 C.ar      1 UNK        -0.1150 
      2 C2         -5.1839  -11.0619   35.7081 C.ar      1 UNK        -0.1150 
      3 C3         -4.2254   -8.8697   35.2262 C.ar      1 UNK        -0.1150 
      4 C4         -5.4812  -10.6464   37.0207 C.ar      1 UNK        -0.1150 
      5 C5         -4.1873   -7.1464   36.9602 C.ar      1 UNK        -0.1150 
      6 C6         -4.4928   -6.7265   38.2686 C.ar      1 UNK        -0.1150 
      7 C7         -5.4548   -8.9183   38.7501 C.ar      1 UNK        -0.1150 
      8 C8         -6.8209   -3.9063   39.6596 C.ar      1 UNK        -0.1150 
      9 C9         -7.6627   -5.9669   38.6739 C.ar      1 UNK        -0.1150 
     10 C10        -4.5200   -8.4492   36.5393 C.ar      1 UNK         0.0000 
     11 C11        -5.1522   -9.3409   37.4402 C.ar      1 UNK         0.0000 
     12 C12        -6.9041   -5.3136   39.6702 C.ar      1 UNK        -0.1150 
     13 C13        -5.1457   -7.6037   39.1664 C.ar      1 UNK        -0.0383 
     14 C14        -7.4393   -3.1511   38.6347 C.ar      1 UNK         0.0850 
     15 C15        -8.2703   -5.2361   37.6257 C.ar      1 UNK         0.0850 
     16 C16        -8.1461   -3.8262   37.6145 C.ar      1 UNK         0.0850 
     17 C17        -6.2369   -6.0836   40.7817 C.2       1 UNK         0.6150 
     18 C18        -5.0253   -8.0237   41.5967 C.3       1 UNK        -0.1100 
     19 C19        -6.7414   -1.0649   39.6064 C.3       1 UNK         0.1100 
     20 C20        -8.9892   -7.2447   36.5130 C.3       1 UNK         0.1100 
     21 C21        -8.0665   -3.1590   35.3750 C.3       1 UNK         0.1100 
     22 N22        -5.4900   -7.1848   40.4869 N.am      1 UNK        -0.0317 
     23 O23        -6.3595   -5.6628   41.9334 O.2       1 UNK        -0.5000 
     24 O24        -7.3797   -1.7748   38.5560 O.3       1 UNK        -0.2850 
     25 O25        -8.9924   -5.8277   36.6093 O.3       1 UNK        -0.2850 
     26 O26        -8.7347   -3.0815   36.6236 O.3       1 UNK        -0.2850 
     27 H27        -4.3310  -10.4935   33.8046 H         1 UNK         0.1150 
     28 H28        -5.4364  -12.0629   35.3888 H         1 UNK         0.1150 
     29 H29        -3.7445   -8.1955   34.5325 H         1 UNK         0.1150 
     30 H30        -5.9621  -11.3343   37.7009 H         1 UNK         0.1150 
     31 H31        -3.7001   -6.4618   36.2812 H         1 UNK         0.1150 
     32 H32        -4.2335   -5.7218   38.5717 H         1 UNK         0.1150 
     33 H33        -5.9452   -9.5992   39.4310 H         1 UNK         0.1150 
     34 H34        -6.2678   -3.4262   40.4530 H         1 UNK         0.1150 
     35 H35        -7.7571   -7.0402   38.7234 H         1 UNK         0.1150 
     36 H36        -4.4988   -7.4276   42.3441 H         1 UNK         0.0600 
     37 H37        -4.3330   -8.7974   41.2634 H         1 UNK         0.0600 
     38 H38        -5.8695   -8.5110   42.0858 H         1 UNK         0.0600 
     39 H39        -6.8183    0.0051   39.4144 H         1 UNK         0.0300 
     40 H40        -5.6812   -1.3131   39.6685 H         1 UNK         0.0300 
     41 H41        -7.2174   -1.2619   40.5681 H         1 UNK         0.0300 
     42 H42        -9.5279   -7.5437   35.6139 H         1 UNK         0.0300 
     43 H43        -9.4932   -7.7021   37.3651 H         1 UNK         0.0300 
     44 H44        -7.9747   -7.6401   36.4358 H         1 UNK         0.0300 
     45 H45        -8.5097   -2.4428   34.6834 H         1 UNK         0.0300 
     46 H46        -8.1511   -4.1485   34.9257 H         1 UNK         0.0300 
     47 H47        -7.0087   -2.9124   35.4789 H         1 UNK         0.0300 
@<TRIPOS>BOND
     1    1    2 ar   
     2    1    3 ar   
     3    1   27 1    
     4    2    4 ar   
     5    2   28 1    
     6    3   10 ar   
     7    3   29 1    
     8    4   11 ar   
     9    4   30 1    
    10    5    6 ar   
    11    5   10 ar   
    12    5   31 1    
    13    6   13 ar   
    14    6   32 1    
    15    7   11 ar   
    16    7   13 ar   
    17    7   33 1    
    18    8   12 ar   
    19    8   14 ar   
    20    8   34 1    
    21    9   12 ar   
    22    9   15 ar   
    23    9   35 1    
    24   10   11 ar   
    25   12   17 1    
    26   13   22 1    
    27   14   16 ar   
    28   14   24 1    
    29   15   16 ar   
    30   15   25 1    
    31   16   26 1    
    32   17   22 am   BACKBONE|DICT|INTERRES
    33   17   23 2    
    34   18   22 1    
    35   18   36 1    
    36   18   37 1    
    37   18   38 1    
    38   19   24 1    
    39   19   39 1    
    40   19   40 1    
    41   19   41 1    
    42   20   25 1    
    43   20   42 1    
    44   20   43 1    
    45   20   44 1    
    46   21   26 1    
    47   21   45 1    
    48   21   46 1    
    49   21   47 1    
@<TRIPOS>SUBSTRUCTURE
     1 UNK         1 GROUP             0       ****    0 ROOT    
@<TRIPOS>MOLECULE
ZINC16011601_53
51   53    1
SMALL
USER_CHARGES


@<TRIPOS>ATOM
      1 C1         -5.1193  -11.1339   35.0468 C.ar      1 UNK        -0.1150 
      2 C2         -4.3196   -9.9781   35.1375 C.ar      1 UNK        -0.1150 
      3 C3         -5.6761  -11.7004   36.2101 C.ar      1 UNK        -0.1150 
      4 C4         -4.0746   -9.3864   36.3921 C.ar      1 UNK        -0.1150 
      5 C5         -5.9918  -11.6716   38.6361 C.ar      1 UNK        -0.1150 
      6 C6         -5.7645  -11.0695   39.8888 C.ar      1 UNK        -0.1150 
      7 C7         -4.3961   -9.3555   38.8157 C.ar      1 UNK        -0.1150 
      8 C8         -7.0966   -3.8332   39.8419 C.ar      1 UNK        -0.1150 
      9 C9         -7.0322   -5.6719   38.2607 C.ar      1 UNK        -0.1150 
     10 C10        -5.4361  -11.1107   37.4684 C.ar      1 UNK         0.0000 
     11 C11        -4.6316   -9.9485   37.5593 C.ar      1 UNK         0.0000 
     12 C12        -6.6999   -5.1443   39.5259 C.ar      1 UNK         0.0000 
     13 C13        -4.9821   -9.8975   39.9844 C.ar      1 UNK        -0.0383 
     14 C14        -7.8007   -3.0410   38.9040 C.ar      1 UNK         0.0850 
     15 C15        -7.7365   -4.9058   37.2990 C.ar      1 UNK         0.0850 
     16 C16        -8.1065   -3.5687   37.6271 C.ar      1 UNK         0.0850 
     17 C17        -5.9902   -5.9428   40.5405 C.2       1 UNK        -0.1150 
     18 C18        -5.8921   -7.2866   40.5383 C.2       1 UNK        -0.1717 
     19 C19        -5.1220   -7.9910   41.5589 C.2       1 UNK         0.5567 
     20 C20        -4.2184  -10.1135   42.3215 C.3       1 UNK        -0.1100 
     21 C21        -7.9499   -1.1897   40.4390 C.3       1 UNK         0.1100 
     22 C22        -7.7381   -6.7654   35.7490 C.3       1 UNK         0.1100 
     23 C23        -8.5892   -2.8189   35.3834 C.3       1 UNK         0.1100 
     24 N24        -4.7840   -9.2782   41.2575 N.am      1 UNK        -0.0317 
     25 O25        -4.8066   -7.4734   42.6326 O.2       1 UNK        -0.5000 
     26 O26        -8.2099   -1.7469   39.1598 O.3       1 UNK        -0.2850 
     27 O27        -8.0925   -5.4262   36.0687 O.3       1 UNK        -0.2850 
     28 O28        -8.7938   -2.7169   36.7840 O.3       1 UNK        -0.2850 
     29 H29        -5.3044  -11.5882   34.0841 H         1 UNK         0.1150 
     30 H30        -3.8911   -9.5465   34.2443 H         1 UNK         0.1150 
     31 H31        -6.2873  -12.5875   36.1306 H         1 UNK         0.1150 
     32 H32        -3.4584   -8.5011   36.4521 H         1 UNK         0.1150 
     33 H33        -6.6013  -12.5616   38.5758 H         1 UNK         0.1150 
     34 H34        -6.2093  -11.5029   40.7734 H         1 UNK         0.1150 
     35 H35        -3.7780   -8.4713   38.8814 H         1 UNK         0.1150 
     36 H36        -6.8513   -3.4506   40.8203 H         1 UNK         0.1150 
     37 H37        -6.7271   -6.6784   38.0300 H         1 UNK         0.1150 
     38 H38        -5.4964   -5.3839   41.3252 H         1 UNK         0.1150 
     39 H39        -6.4048   -7.8483   39.7750 H         1 UNK         0.1150 
     40 H40        -3.3406   -9.6385   42.7628 H         1 UNK         0.0600 
     41 H41        -3.9032  -11.0898   41.9521 H         1 UNK         0.0600 
     42 H42        -4.9522  -10.2716   43.1132 H         1 UNK         0.0600 
     43 H43        -8.3558   -0.1791   40.4780 H         1 UNK         0.0300 
     44 H44        -6.8792   -1.1219   40.6343 H         1 UNK         0.0300 
     45 H45        -8.4288   -1.7670   41.2309 H         1 UNK         0.0300 
     46 H46        -8.0974   -7.0012   34.7476 H         1 UNK         0.0300 
     47 H47        -8.1969   -7.4770   36.4368 H         1 UNK         0.0300 
     48 H48        -6.6562   -6.9055   35.7493 H         1 UNK         0.0300 
     49 H49        -8.8344   -1.8642   34.9186 H         1 UNK         0.0300 
     50 H50        -9.2458   -3.5695   34.9430 H         1 UNK         0.0300 
     51 H51        -7.5520   -3.0477   35.1336 H         1 UNK         0.0300 
@<TRIPOS>BOND
     1    1    2 ar   
     2    1    3 ar   
     3    1   29 1    
     4    2    4 ar   
     5    2   30 1    
     6    3   10 ar   
     7    3   31 1    
     8    4   11 ar   
     9    4   32 1    
    10    5    6 ar   
    11    5   10 ar   
    12    5   33 1    
    13    6   13 ar   
    14    6   34 1    
    15    7   11 ar   
    16    7   13 ar   
    17    7   35 1    
    18    8   12 ar   
    19    8   14 ar   
    20    8   36 1    
    21    9   12 ar   
    22    9   15 ar   
    23    9   37 1    
    24   10   11 ar   
    25   12   17 1    
    26   13   24 1    
    27   14   16 ar   
    28   14   26 1    
    29   15   16 ar   
    30   15   27 1    
    31   16   28 1    
    32   17   18 2    
    33   17   38 1    
    34   18   19 1    
    35   18   39 1    
    36   19   24 am   BACKBONE|DICT|INTERRES
    37   19   25 2    
    38   20   24 1    
    39   20   40 1    
    40   20   41 1    
    41   20   42 1    
    42   21   26 1    
    43   21   43 1    
    44   21   44 1    
    45   21   45 1    
    46   22   27 1    
    47   22   46 1    
    48   22   47 1    
    49   22   48 1    
    50   23   28 1    
    51   23   49 1    
    52   23   50 1    
    53   23   51 1    
@<TRIPOS>SUBSTRUCTURE
     1 UNK         1 GROUP             0       ****    0 ROOT    
@<TRIPOS>MOLECULE
ZINC16277027_61
43   46    1
SMALL
USER_CHARGES


@<TRIPOS>ATOM
      1 C1         -4.9506   -8.5432   36.8060 C.ar      1 UNK        -0.1150 
      2 C2         -7.8938   -5.8895   38.4812 C.ar      1 UNK        -0.1150 
      3 C3         -5.3362   -7.6255   37.8073 C.ar      1 UNK        -0.1150 
      4 C4         -8.3970   -5.1282   37.4092 C.ar      1 UNK        -0.1150 
      5 C5         -4.9299  -10.3667   38.4304 C.ar      1 UNK        -0.1150 
      6 C6         -6.4259   -4.0471   39.0835 C.ar      1 UNK        -0.1150 
      7 C7         -4.2716  -12.2357   36.1168 C.2       1 UNK        -0.3376 
      8 C8         -4.7506   -9.9174   37.0998 C.ar      1 UNK         0.0000 
      9 C9         -6.8818   -5.3613   39.3119 C.ar      1 UNK        -0.1150 
     10 C10        -5.3176   -9.4419   39.4154 C.ar      1 UNK        -0.1150 
     11 C11        -5.5470   -8.1025   39.1191 C.ar      1 UNK        -0.0383 
     12 C12        -7.9245   -3.8246   37.1539 C.ar      1 UNK         0.0850 
     13 C13        -6.9290   -3.2816   38.0147 C.ar      1 UNK         0.2200 
     14 C14        -4.3560  -10.8643   36.0440 C.2       1 UNK         0.2843 
     15 C15        -3.6712  -11.3627   33.9140 C.2       1 UNK         0.1859 
     16 C16        -6.3504   -6.1403   40.4816 C.2       1 UNK         0.6150 
     17 C17        -5.5075   -9.7165   40.8793 C.3       1 UNK        -0.0050 
     18 C18        -5.7562   -8.3084   41.4628 C.3       1 UNK        -0.0500 
     19 C19        -3.2612  -11.1097   32.5056 C.3       1 UNK        -0.0650 
     20 C20        -8.0519   -1.8883   35.7127 C.3       1 UNK         0.1100 
     21 N21        -4.0060  -10.3956   34.7694 N.2       1 UNK        -0.4803 
     22 N22        -5.9132   -7.4129   40.3072 N.am      1 UNK        -0.0317 
     23 O23        -6.3168   -5.5885   41.5820 O.2       1 UNK        -0.5000 
     24 O24        -8.4955   -3.1885   36.0697 O.3       1 UNK        -0.2850 
     25 F25        -6.4339   -2.0320   37.8476 F         1 UNK        -0.2200 
     26 S26        -3.7590  -12.9653   34.6201 S.3       1 UNK         0.0010 
     27 H27        -4.8007   -8.1820   35.7987 H         1 UNK         0.1150 
     28 H28        -8.2791   -6.8847   38.6555 H         1 UNK         0.1150 
     29 H29        -5.4480   -6.5854   37.5433 H         1 UNK         0.1150 
     30 H30        -9.1598   -5.5473   36.7693 H         1 UNK         0.1150 
     31 H31        -4.7618  -11.3983   38.6983 H         1 UNK         0.1150 
     32 H32        -5.6790   -3.6156   39.7342 H         1 UNK         0.1150 
     33 H33        -4.4846  -12.8675   36.9635 H         1 UNK         0.2317 
     34 H34        -6.3684  -10.3700   41.0243 H         1 UNK         0.0600 
     35 H35        -4.6258  -10.1908   41.3119 H         1 UNK         0.0600 
     36 H36        -6.6328   -8.2924   42.1123 H         1 UNK         0.0600 
     37 H37        -4.8978   -7.9768   42.0490 H         1 UNK         0.0600 
     38 H38        -2.1855  -11.2502   32.4024 H         1 UNK         0.0600 
     39 H39        -3.7739  -11.8014   31.8376 H         1 UNK         0.0600 
     40 H40        -3.5122  -10.0898   32.2133 H         1 UNK         0.0600 
     41 H41        -8.5887   -1.5609   34.8225 H         1 UNK         0.0300 
     42 H42        -6.9880   -1.8792   35.4718 H         1 UNK         0.0300 
     43 H43        -8.2585   -1.1639   36.5014 H         1 UNK         0.0300 
@<TRIPOS>BOND
     1    1    3 ar   
     2    1    8 ar   
     3    1   27 1    
     4    2    4 ar   
     5    2    9 ar   
     6    2   28 1    
     7    3   11 ar   
     8    3   29 1    
     9    4   12 ar   
    10    4   30 1    
    11    5    8 ar   
    12    5   10 ar   
    13    5   31 1    
    14    6    9 ar   
    15    6   13 ar   
    16    6   32 1    
    17    7   14 2    
    18    7   26 1    
    19    7   33 1    
    20    8   14 1    
    21    9   16 1    
    22   10   11 ar   
    23   10   17 1    
    24   11   22 1    
    25   12   13 ar   
    26   12   24 1    
    27   13   25 1    
    28   14   21 1    
    29   15   19 1    
    30   15   21 2    
    31   15   26 1    
    32   16   22 am   BACKBONE|DICT|INTERRES
    33   16   23 2    
    34   17   18 1    
    35   17   34 1    
    36   17   35 1    
    37   18   22 1    
    38   18   36 1    
    39   18   37 1    
    40   19   38 1    
    41   19   39 1    
    42   19   40 1    
    43   20   24 1    
    44   20   41 1    
    45   20   42 1    
    46   20   43 1    
@<TRIPOS>SUBSTRUCTURE
     1 UNK         1 GROUP             0       ****    0 ROOT    
@<TRIPOS>MOLECULE
ZINC16579400_171
45   47    1
SMALL
USER_CHARGES


@<TRIPOS>ATOM
      1 C1         -4.0042  -11.8773   35.8995 C.ar      1 UNK        -0.1150 
      2 C2         -4.2188  -11.3333   37.1813 C.ar      1 UNK        -0.1150 
      3 C3         -5.0063  -11.7818   34.9151 C.ar      1 UNK        -0.1150 
      4 C4         -8.0111   -3.1048   37.3644 C.ar      1 UNK        -0.1150 
      5 C5         -7.6560   -4.3292   36.7693 C.ar      1 UNK        -0.1150 
      6 C6         -6.4402  -10.6012   36.4950 C.ar      1 UNK        -0.1150 
      7 C7         -8.1433   -4.1871   39.5361 C.ar      1 UNK        -0.1150 
      8 C8         -5.4390  -10.6894   37.4877 C.ar      1 UNK         0.0000 
      9 C9         -6.2284  -11.1443   35.2109 C.ar      1 UNK        -0.1150 
     10 C10        -7.7746   -5.4199   38.9456 C.ar      1 UNK         0.0850 
     11 C11        -8.2587   -3.0171   38.7465 C.ar      1 UNK         0.0850 
     12 C12        -7.5365   -5.5000   37.5558 C.ar      1 UNK         0.0850 
     13 C13        -5.6745  -10.1051   38.8077 C.2       1 UNK         0.6636 
     14 C14        -6.3909   -9.1057   40.4995 C.2       1 UNK         0.5497 
     15 C15        -7.4737   -6.8643   40.9795 C.2       1 UNK         0.5000 
     16 C16        -7.3087  -11.0349   34.1546 C.3       1 UNK        -0.0650 
     17 C17        -8.8144   -1.6455   40.6370 C.3       1 UNK         0.1100 
     18 C18        -6.8829   -6.8346   35.6647 C.3       1 UNK         0.1100 
     19 C19        -7.2822   -8.3242   41.4182 C.3       1 UNK        -0.0050 
     20 N20        -6.7638   -9.4645   39.2367 N.2       1 UNK        -0.7040 
     21 N21        -5.1858   -9.5111   40.8783 N.2       1 UNK        -0.4268 
     22 N22        -7.6465   -6.6372   39.6640 N.am      1 UNK        -0.3850 
     23 O23        -7.5035   -5.9847   41.8402 O.2       1 UNK        -0.5000 
     24 O24        -4.6948  -10.1749   39.7443 O.3       1 UNK        -0.1975 
     25 O25        -8.6061   -1.7774   39.2377 O.3       1 UNK        -0.2850 
     26 O26        -7.1946   -6.7383   37.0469 O.3       1 UNK        -0.2850 
     27 H27        -3.0682  -12.3667   35.6709 H         1 UNK         0.1150 
     28 H28        -3.4408  -11.4100   37.9276 H         1 UNK         0.1150 
     29 H29        -4.8316  -12.1996   33.9337 H         1 UNK         0.1150 
     30 H30        -8.0980   -2.2178   36.7541 H         1 UNK         0.1150 
     31 H31        -7.4815   -4.3405   35.7049 H         1 UNK         0.1150 
     32 H32        -7.3737  -10.1065   36.7254 H         1 UNK         0.1150 
     33 H33        -8.3447   -4.1436   40.5933 H         1 UNK         0.1150 
     34 H34        -8.2981  -11.1355   34.6022 H         1 UNK         0.0600 
     35 H35        -7.2530  -10.0661   33.6575 H         1 UNK         0.0600 
     36 H36        -7.2016  -11.8148   33.4000 H         1 UNK         0.0600 
     37 H37        -9.0524   -0.6077   40.8693 H         1 UNK         0.0300 
     38 H38        -7.9195   -1.9123   41.2012 H         1 UNK         0.0300 
     39 H39        -9.6509   -2.2586   40.9756 H         1 UNK         0.0300 
     40 H40        -6.6023   -7.8607   35.4282 H         1 UNK         0.0300 
     41 H41        -6.0394   -6.1952   35.4001 H         1 UNK         0.0300 
     42 H42        -7.7420   -6.5772   35.0439 H         1 UNK         0.0300 
     43 H43        -8.2570   -8.8079   41.4694 H         1 UNK         0.0600 
     44 H44        -6.8678   -8.3410   42.4270 H         1 UNK         0.0600 
     45 H45        -7.5483   -7.4529   39.0664 H         1 UNK         0.3000 
@<TRIPOS>BOND
     1    1    2 ar   
     2    1    3 ar   
     3    1   27 1    
     4    2    8 ar   
     5    2   28 1    
     6    3    9 ar   
     7    3   29 1    
     8    4    5 ar   
     9    4   11 ar   
    10    4   30 1    
    11    5   12 ar   
    12    5   31 1    
    13    6    8 ar   
    14    6    9 ar   
    15    6   32 1    
    16    7   10 ar   
    17    7   11 ar   
    18    7   33 1    
    19    8   13 1    
    20    9   16 1    
    21   10   12 ar   
    22   10   22 1    
    23   11   25 1    
    24   12   26 1    
    25   13   20 2    
    26   13   24 1    
    27   14   19 1    
    28   14   20 1    
    29   14   21 2    
    30   15   19 1    
    31   15   22 am   BACKBONE|DICT|INTERRES
    32   15   23 2    
    33   16   34 1    
    34   16   35 1    
    35   16   36 1    
    36   17   25 1    
    37   17   37 1    
    38   17   38 1    
    39   17   39 1    
    40   18   26 1    
    41   18   40 1    
    42   18   41 1    
    43   18   42 1    
    44   19   43 1    
    45   19   44 1    
    46   21   24 1    
    47   22   45 1    
@<TRIPOS>SUBSTRUCTURE
     1 UNK         1 GROUP             0       ****    0 ROOT    
@<TRIPOS>MOLECULE
ZINC16643286_290
44   46    1
SMALL
USER_CHARGES


@<TRIPOS>ATOM
      1 C1         -4.9975  -11.0272   35.4803 C.2       1 UNK        -0.0738 
      2 C2         -4.8633  -10.2690   36.6814 C.2       1 UNK        -0.0738 
      3 C3         -7.8127   -5.9229   37.8895 C.ar      1 UNK        -0.1150 
      4 C4         -7.6051   -4.1812   39.5818 C.ar      1 UNK        -0.1150 
      5 C5         -5.8062  -12.1237   35.6321 C.2       1 UNK        -0.3255 
      6 C6         -6.0571   -9.8839   41.4914 C.2       1 UNK        -0.3376 
      7 C7         -7.2698   -5.4707   39.1086 C.ar      1 UNK         0.0850 
      8 C8         -8.6986   -5.1113   37.1409 C.ar      1 UNK         0.0850 
      9 C9         -8.4905   -3.3525   38.8503 C.ar      1 UNK         0.0850 
     10 C10        -9.0252   -3.8258   37.6315 C.ar      1 UNK         0.0850 
     11 C11        -5.5659  -10.7993   37.7335 C.2       1 UNK        -0.0637 
     12 C12        -5.4464   -8.8361   40.8473 C.2       1 UNK         0.1693 
     13 C13        -5.6704  -10.2881   39.0954 C.2       1 UNK         0.3009 
     14 C14        -5.9580   -6.3665   41.0565 C.2       1 UNK         0.5000 
     15 C15        -8.9880   -6.8049   35.4543 C.3       1 UNK         0.1100 
     16 C16        -8.3911   -1.6045   40.5003 C.3       1 UNK         0.1100 
     17 C17        -9.2868   -2.3665   35.8321 C.3       1 UNK         0.1100 
     18 C18        -5.0220   -7.5192   41.4487 C.3       1 UNK        -0.0050 
     19 N19        -5.2209   -9.0908   39.4869 N.2       1 UNK        -0.4803 
     20 N20        -6.3789   -6.3527   39.7787 N.am      1 UNK        -0.3850 
     21 O21        -6.2552   -5.5210   41.8987 O.2       1 UNK        -0.5000 
     22 O22        -9.2726   -5.5047   35.9481 O.3       1 UNK        -0.2850 
     23 O23        -8.8614   -2.0839   39.2492 O.3       1 UNK        -0.2850 
     24 O24        -9.8907   -3.0231   36.9335 O.3       1 UNK        -0.2850 
     25 S25        -6.4212  -12.2474   37.2592 S.3       1 UNK         0.0328 
     26 S26        -6.3829  -11.2152   40.4143 S.3       1 UNK         0.0010 
     27 H27        -4.5019  -10.7445   34.5622 H         1 UNK         0.1211 
     28 H28        -4.2628   -9.3726   36.7398 H         1 UNK         0.1211 
     29 H29        -7.5427   -6.9086   37.5436 H         1 UNK         0.1150 
     30 H30        -7.1743   -3.8251   40.5025 H         1 UNK         0.1150 
     31 H31        -6.0786  -12.8659   34.8949 H         1 UNK         0.2618 
     32 H32        -6.3409   -9.9552   42.5315 H         1 UNK         0.2317 
     33 H33        -9.5323   -6.9614   34.5232 H         1 UNK         0.0300 
     34 H34        -9.3067   -7.5778   36.1553 H         1 UNK         0.0300 
     35 H35        -7.9256   -6.9258   35.2386 H         1 UNK         0.0300 
     36 H36        -8.8003   -0.6107   40.6805 H         1 UNK         0.0300 
     37 H37        -7.3038   -1.5192   40.5118 H         1 UNK         0.0300 
     38 H38        -8.7126   -2.2472   41.3212 H         1 UNK         0.0300 
     39 H39       -10.0133   -1.7051   35.3606 H         1 UNK         0.0300 
     40 H40        -8.9412   -3.0739   35.0779 H         1 UNK         0.0300 
     41 H41        -8.4402   -1.7587   36.1547 H         1 UNK         0.0300 
     42 H42        -4.9917   -7.5884   42.5365 H         1 UNK         0.0600 
     43 H43        -4.0111   -7.2619   41.1319 H         1 UNK         0.0600 
     44 H44        -6.0715   -7.1649   39.2545 H         1 UNK         0.3000 
@<TRIPOS>BOND
     1    1    2 1    
     2    1    5 2    
     3    1   27 1    
     4    2   11 2    
     5    2   28 1    
     6    3    7 ar   
     7    3    8 ar   
     8    3   29 1    
     9    4    7 ar   
    10    4    9 ar   
    11    4   30 1    
    12    5   25 1    
    13    5   31 1    
    14    6   12 2    
    15    6   26 1    
    16    6   32 1    
    17    7   20 1    
    18    8   10 ar   
    19    8   22 1    
    20    9   10 ar   
    21    9   23 1    
    22   10   24 1    
    23   11   13 1    
    24   11   25 1    
    25   12   18 1    
    26   12   19 1    
    27   13   19 2    
    28   13   26 1    
    29   14   18 1    
    30   14   20 am   BACKBONE|DICT|INTERRES
    31   14   21 2    
    32   15   22 1    
    33   15   33 1    
    34   15   34 1    
    35   15   35 1    
    36   16   23 1    
    37   16   36 1    
    38   16   37 1    
    39   16   38 1    
    40   17   24 1    
    41   17   39 1    
    42   17   40 1    
    43   17   41 1    
    44   18   42 1    
    45   18   43 1    
    46   20   44 1    
@<TRIPOS>SUBSTRUCTURE
     1 UNK         1 GROUP             0       ****    0 ROOT    
@<TRIPOS>MOLECULE
ZINC16966472_274
47   48    1
SMALL
USER_CHARGES


@<TRIPOS>ATOM
      1 C1         -5.0518  -11.5333   36.7978 C.ar      1 UNK        -0.1150 
      2 C2         -4.2640   -9.4478   35.8180 C.ar      1 UNK        -0.1150 
      3 C3         -5.2739  -10.8753   38.0234 C.ar      1 UNK        -0.1150 
      4 C4         -4.4875   -8.7918   37.0434 C.ar      1 UNK        -0.1150 
      5 C5         -7.6241   -5.7680   38.2819 C.ar      1 UNK        -0.1150 
      6 C6         -7.2820   -3.8575   39.7626 C.ar      1 UNK        -0.1150 
      7 C7         -8.4893   -3.5815   37.6704 C.ar      1 UNK        -0.1150 
      8 C8         -7.1258   -5.2313   39.4889 C.ar      1 UNK        -0.1150 
      9 C9         -4.5442  -10.8225   35.6917 C.ar      1 UNK        -0.1150 
     10 C10        -4.9948   -9.4926   38.1548 C.ar      1 UNK         0.0850 
     11 C11        -8.3164   -4.9453   37.3626 C.ar      1 UNK         0.0850 
     12 C12        -7.9758   -3.0203   38.8565 C.ar      1 UNK         0.0850 
     13 C13        -6.3620   -6.0983   40.4468 C.2       1 UNK         0.6150 
     14 C14        -4.2992  -11.5287   34.3743 C.3       1 UNK        -0.0650 
     15 C15        -8.4045   -7.4652   40.8348 C.3       1 UNK        -0.1100 
     16 C16        -8.6275   -6.7491   35.8084 C.3       1 UNK         0.1100 
     17 C17        -7.6602   -1.0784   40.2315 C.3       1 UNK         0.1100 
     18 C18        -6.1639   -8.3289   41.4669 C.3       1 UNK        -0.0500 
     19 C19        -5.8456   -9.3906   40.4024 C.3       1 UNK         0.1400 
     20 N20        -6.9545   -7.2388   40.8795 N.am      1 UNK        -0.1400 
     21 O21        -5.2296   -5.7556   40.7843 O.2       1 UNK        -0.5000 
     22 O22        -8.8374   -5.3908   36.1671 O.3       1 UNK        -0.2850 
     23 O23        -8.1858   -1.6727   39.0536 O.3       1 UNK        -0.2850 
     24 O24        -5.1833   -8.7686   39.3099 O.3       1 UNK        -0.2850 
     25 H25        -5.2693  -12.5881   36.7137 H         1 UNK         0.1150 
     26 H26        -3.8732   -8.8901   34.9791 H         1 UNK         0.1150 
     27 H27        -5.6525  -11.4561   38.8502 H         1 UNK         0.1150 
     28 H28        -4.2676   -7.7379   37.1358 H         1 UNK         0.1150 
     29 H29        -7.4510   -6.8146   38.0786 H         1 UNK         0.1150 
     30 H30        -6.8578   -3.4715   40.6777 H         1 UNK         0.1150 
     31 H31        -9.0164   -2.9470   36.9735 H         1 UNK         0.1150 
     32 H32        -5.1364  -11.3631   33.6960 H         1 UNK         0.0600 
     33 H33        -3.3921  -11.1534   33.8995 H         1 UNK         0.0600 
     34 H34        -4.1820  -12.6032   34.5192 H         1 UNK         0.0600 
     35 H35        -8.6945   -7.8906   39.8737 H         1 UNK         0.0600 
     36 H36        -8.9622   -6.5382   40.9807 H         1 UNK         0.0600 
     37 H37        -8.7334   -8.1542   41.6129 H         1 UNK         0.0600 
     38 H38        -9.0762   -6.9365   34.8329 H         1 UNK         0.0300 
     39 H39        -9.0972   -7.4271   36.5223 H         1 UNK         0.0300 
     40 H40        -7.5646   -6.9831   35.7324 H         1 UNK         0.0300 
     41 H41        -7.8973   -0.0145   40.2343 H         1 UNK         0.0300 
     42 H42        -6.5744   -1.1736   40.2767 H         1 UNK         0.0300 
     43 H43        -8.0997   -1.5165   41.1287 H         1 UNK         0.0300 
     44 H44        -6.6975   -8.7843   42.3009 H         1 UNK         0.0600 
     45 H45        -5.2304   -7.9580   41.8940 H         1 UNK         0.0600 
     46 H46        -6.7761   -9.8548   40.0710 H         1 UNK         0.0300 
     47 H47        -5.2130  -10.1706   40.8282 H         1 UNK         0.0300 
@<TRIPOS>BOND
     1    1    3 ar   
     2    1    9 ar   
     3    1   25 1    
     4    2    4 ar   
     5    2    9 ar   
     6    2   26 1    
     7    3   10 ar   
     8    3   27 1    
     9    4   10 ar   
    10    4   28 1    
    11    5    8 ar   
    12    5   11 ar   
    13    5   29 1    
    14    6    8 ar   
    15    6   12 ar   
    16    6   30 1    
    17    7   11 ar   
    18    7   12 ar   
    19    7   31 1    
    20    8   13 1    
    21    9   14 1    
    22   10   24 1    
    23   11   22 1    
    24   12   23 1    
    25   13   20 am   BACKBONE|DICT|INTERRES
    26   13   21 2    
    27   14   32 1    
    28   14   33 1    
    29   14   34 1    
    30   15   20 1    
    31   15   35 1    
    32   15   36 1    
    33   15   37 1    
    34   16   22 1    
    35   16   38 1    
    36   16   39 1    
    37   16   40 1    
    38   17   23 1    
    39   17   41 1    
    40   17   42 1    
    41   17   43 1    
    42   18   19 1    
    43   18   20 1    
    44   18   44 1    
    45   18   45 1    
    46   19   24 1    
    47   19   46 1    
    48   19   47 1    
@<TRIPOS>SUBSTRUCTURE
     1 UNK         1 GROUP             0       ****    0 ROOT    
@<TRIPOS>MOLECULE
ZINC17031945_27
45   46    1
SMALL
USER_CHARGES


@<TRIPOS>ATOM
      1 C1         -6.7866   -3.9223   39.5496 C.ar      1 UNK        -0.1150 
      2 C2         -7.8923   -5.8823   38.6138 C.ar      1 UNK        -0.1150 
      3 C3         -7.0414   -5.3078   39.5821 C.ar      1 UNK        -0.1150 
      4 C4         -7.3326   -3.1115   38.5263 C.ar      1 UNK         0.0850 
      5 C5         -8.4409   -5.0934   37.5749 C.ar      1 UNK         0.0850 
      6 C6         -8.1452   -3.7108   37.5381 C.ar      1 UNK         0.0850 
      7 C7         -6.4655   -6.1379   40.6936 C.2       1 UNK         0.6150 
      8 C8         -5.2650   -7.6328   39.0492 C.3       1 UNK        -0.0500 
      9 C9         -5.2970   -8.2030   41.3883 C.3       1 UNK        -0.0500 
     10 C10        -5.8802   -9.0033   38.7093 C.3       1 UNK         0.1700 
     11 C11        -5.9006   -9.5748   41.0316 C.3       1 UNK         0.1700 
     12 C12        -5.4015   -9.5377   37.3576 C.3       1 UNK        -0.1800 
     13 C13        -5.4365  -10.6795   41.9839 C.3       1 UNK        -0.1800 
     14 C14        -6.3699   -1.1112   39.4493 C.3       1 UNK         0.1100 
     15 C15        -9.5880   -6.9775   36.6120 C.3       1 UNK         0.1100 
     16 C16        -7.9480   -2.9870   35.3344 C.3       1 UNK         0.1100 
     17 N17        -5.7350   -7.2345   40.3801 N.am      1 UNK        -0.1400 
     18 O18        -6.6727   -5.7873   41.8540 O.2       1 UNK        -0.5000 
     19 O19        -5.4913   -9.9368   39.7135 O.3       1 UNK        -0.4000 
     20 O20        -7.1101   -1.7538   38.4229 O.3       1 UNK        -0.2850 
     21 O21        -9.2593   -5.5969   36.5844 O.3       1 UNK        -0.2850 
     22 O22        -8.6752   -2.9239   36.5488 O.3       1 UNK        -0.2850 
     23 H23        -6.1631   -3.5036   40.3254 H         1 UNK         0.1150 
     24 H24        -8.1151   -6.9342   38.6892 H         1 UNK         0.1150 
     25 H25        -4.1768   -7.7084   39.0678 H         1 UNK         0.0600 
     26 H26        -5.4877   -6.9043   38.2708 H         1 UNK         0.0600 
     27 H27        -5.5988   -7.9223   42.3991 H         1 UNK         0.0600 
     28 H28        -4.2074   -8.2513   41.3988 H         1 UNK         0.0600 
     29 H29        -6.9689   -8.9359   38.6911 H         1 UNK         0.0300 
     30 H30        -6.9904   -9.5184   41.0644 H         1 UNK         0.0300 
     31 H31        -5.8394  -10.5145   37.1508 H         1 UNK         0.0600 
     32 H32        -4.3173   -9.6515   37.3407 H         1 UNK         0.0600 
     33 H33        -5.6832   -8.8680   36.5448 H         1 UNK         0.0600 
     34 H34        -5.8727  -11.6391   41.7057 H         1 UNK         0.0600 
     35 H35        -5.7323  -10.4647   43.0109 H         1 UNK         0.0600 
     36 H36        -4.3520  -10.7895   41.9615 H         1 UNK         0.0600 
     37 H37        -6.3191   -0.0427   39.2398 H         1 UNK         0.0300 
     38 H38        -5.3468   -1.4860   39.4973 H         1 UNK         0.0300 
     39 H39        -6.8473   -1.2339   40.4226 H         1 UNK         0.0300 
     40 H40       -10.2382   -7.2076   35.7680 H         1 UNK         0.0300 
     41 H41       -10.1263   -7.2410   37.5235 H         1 UNK         0.0300 
     42 H42        -8.6978   -7.6016   36.5219 H         1 UNK         0.0300 
     43 H43        -8.3941   -2.3087   34.6074 H         1 UNK         0.0300 
     44 H44        -7.9617   -3.9910   34.9089 H         1 UNK         0.0300 
     45 H45        -6.9105   -2.6842   35.4833 H         1 UNK         0.0300 
@<TRIPOS>BOND
     1    1    3 ar   
     2    1    4 ar   
     3    1   23 1    
     4    2    3 ar   
     5    2    5 ar   
     6    2   24 1    
     7    3    7 1    
     8    4    6 ar   
     9    4   20 1    
    10    5    6 ar   
    11    5   21 1    
    12    6   22 1    
    13    7   17 am   BACKBONE|DICT|INTERRES
    14    7   18 2    
    15    8   10 1    
    16    8   17 1    
    17    8   25 1    
    18    8   26 1    
    19    9   11 1    
    20    9   17 1    
    21    9   27 1    
    22    9   28 1    
    23   10   12 1    
    24   10   19 1    
    25   10   29 1    
    26   11   13 1    
    27   11   19 1    
    28   11   30 1    
    29   12   31 1    
    30   12   32 1    
    31   12   33 1    
    32   13   34 1    
    33   13   35 1    
    34   13   36 1    
    35   14   20 1    
    36   14   37 1    
    37   14   38 1    
    38   14   39 1    
    39   15   21 1    
    40   15   40 1    
    41   15   41 1    
    42   15   42 1    
    43   16   22 1    
    44   16   43 1    
    45   16   44 1    
    46   16   45 1    
@<TRIPOS>SUBSTRUCTURE
     1 UNK         1 GROUP             0       ****    0 ROOT    
@<TRIPOS>MOLECULE
ZINC17067655_22
42   43    1
SMALL
USER_CHARGES


@<TRIPOS>ATOM
      1 C1         -9.9874  -22.4674   37.4741 C.2       1 UNK        -0.1540 
      2 C2        -10.3695  -21.3973   38.3305 C.2       1 UNK        -0.1540 
      3 C3        -16.3034  -13.3302   37.8978 C.ar      1 UNK        -0.1150 
      4 C4        -14.3325  -12.1384   38.6792 C.ar      1 UNK        -0.1150 
      5 C5        -10.5634  -22.2040   36.2643 C.2       1 UNK        -0.0190 
      6 C6        -14.9339  -13.3336   38.2400 C.ar      1 UNK        -0.1150 
      7 C7        -17.0561  -12.1318   37.9461 C.ar      1 UNK         0.0850 
      8 C8        -15.0597  -10.9363   38.7561 C.ar      1 UNK         0.0850 
      9 C9        -16.4252  -10.9300   38.3529 C.ar      1 UNK         0.0850 
     10 C10       -11.1503  -20.5598   37.5827 C.2       1 UNK         0.1230 
     11 C11       -11.8139  -19.3327   37.8829 C.2       1 UNK        -0.1150 
     12 C12       -12.5512  -18.5796   37.0455 C.2       1 UNK        -0.2947 
     13 C13       -13.1569  -17.3578   37.5105 C.2       1 UNK         0.3879 
     14 C14       -14.1236  -14.5949   38.1865 C.2       1 UNK         0.6150 
     15 C15       -19.0771  -13.2590   37.2722 C.3       1 UNK         0.1100 
     16 C16       -15.0454   -8.7718   39.8203 C.3       1 UNK         0.1100 
     17 C17       -17.3215   -9.2093   37.0556 C.3       1 UNK         0.1100 
     18 N18       -13.8414  -16.5882   36.7339 N.2       1 UNK        -0.2833 
     19 N19       -14.4151  -15.4050   37.1455 N.am      1 UNK        -0.2934 
     20 O20       -13.2345  -14.7995   39.0110 O.2       1 UNK        -0.5000 
     21 O21       -11.2754  -21.0457   36.3143 O.3       1 UNK        -0.1900 
     22 O22       -18.3942  -12.0623   37.6138 O.3       1 UNK        -0.2850 
     23 O23       -14.3470   -9.8418   39.2012 O.3       1 UNK        -0.2850 
     24 O24       -17.1585   -9.7704   38.3489 O.3       1 UNK        -0.2850 
     25 H25        -9.3687  -23.3205   37.7119 H         1 UNK         0.1260 
     26 H26       -10.1043  -21.2553   39.3679 H         1 UNK         0.1260 
     27 H27       -16.7676  -14.2592   37.6057 H         1 UNK         0.1150 
     28 H28       -13.2913  -12.1405   38.9712 H         1 UNK         0.1150 
     29 H29       -10.5699  -22.7072   35.3082 H         1 UNK         0.1420 
     30 H30       -11.6855  -19.0033   38.9050 H         1 UNK         0.1150 
     31 H31       -12.6965  -18.8804   36.0180 H         1 UNK         0.1150 
     32 H32       -12.9977  -17.1507   38.5689 H         1 UNK         0.0685 
     33 H33       -20.1237  -13.0295   37.0725 H         1 UNK         0.0300 
     34 H34       -19.0499  -13.9815   38.0891 H         1 UNK         0.0300 
     35 H35       -18.6623  -13.7123   36.3709 H         1 UNK         0.0300 
     36 H36       -15.8330   -9.1262   40.4871 H         1 UNK         0.0300 
     37 H37       -15.4709   -8.0955   39.0788 H         1 UNK         0.0300 
     38 H38       -14.3463   -8.1915   40.4220 H         1 UNK         0.0300 
     39 H39       -17.8451   -8.2569   37.1363 H         1 UNK         0.0300 
     40 H40       -17.9055   -9.8553   36.3997 H         1 UNK         0.0300 
     41 H41       -16.3549   -9.0207   36.5862 H         1 UNK         0.0300 
     42 H42       -15.0846  -15.0405   36.4861 H         1 UNK         0.3000 
@<TRIPOS>BOND
     1    1    2 1    
     2    1    5 2    
     3    1   25 1    
     4    2   10 2    
     5    2   26 1    
     6    3    6 ar   
     7    3    7 ar   
     8    3   27 1    
     9    4    6 ar   
    10    4    8 ar   
    11    4   28 1    
    12    5   21 1    
    13    5   29 1    
    14    6   14 1    
    15    7    9 ar   
    16    7   22 1    
    17    8    9 ar   
    18    8   23 1    
    19    9   24 1    
    20   10   11 1    
    21   10   21 1    
    22   11   12 2    
    23   11   30 1    
    24   12   13 1    
    25   12   31 1    
    26   13   18 2    
    27   13   32 1    
    28   14   19 am   BACKBONE|DICT|INTERRES
    29   14   20 2    
    30   15   22 1    
    31   15   33 1    
    32   15   34 1    
    33   15   35 1    
    34   16   23 1    
    35   16   36 1    
    36   16   37 1    
    37   16   38 1    
    38   17   24 1    
    39   17   39 1    
    40   17   40 1    
    41   17   41 1    
    42   18   19 1    
    43   19   42 1    
@<TRIPOS>SUBSTRUCTURE
     1 UNK         1 GROUP             0       ****    0 ROOT    
@<TRIPOS>MOLECULE
ZINC17370812_194
46   48    1
SMALL
USER_CHARGES


@<TRIPOS>ATOM
      1 C1         -6.4405  -11.5524   35.5310 C.ar      1 UNK         0.0055 
      2 C2         -6.9011  -12.8276   35.9109 C.ar      1 UNK        -0.3011 
      3 C3         -6.1233  -10.5964   36.5158 C.ar      1 UNK        -0.4461 
      4 C4         -7.0383  -13.1492   37.2750 C.ar      1 UNK        -0.1407 
      5 C5         -8.6470   -7.2394   38.4722 C.ar      1 UNK        -0.1150 
      6 C6         -8.7000   -5.1561   39.7364 C.ar      1 UNK        -0.1150 
      7 C7         -8.3541   -6.5192   39.6508 C.ar      1 UNK        -0.1150 
      8 C8         -6.2547  -10.8882   37.8890 C.ar      1 UNK         0.6314 
      9 C9         -9.3120   -6.6126   37.3918 C.ar      1 UNK         0.0850 
     10 C10        -9.3628   -4.5066   38.6673 C.ar      1 UNK         0.0850 
     11 C11        -9.6570   -5.2463   37.4951 C.ar      1 UNK         0.0850 
     12 C12        -6.7171  -12.1866   38.2499 C.ar      1 UNK        -0.1027 
     13 C13        -6.2102  -10.6498   40.1134 C.2       1 UNK         0.2008 
     14 C14        -7.6460   -7.1778   40.7958 C.2       1 UNK         0.6150 
     15 C15        -9.3277   -8.6364   36.0892 C.3       1 UNK         0.1100 
     16 C16        -9.4991   -2.4381   39.8910 C.3       1 UNK         0.1100 
     17 C17        -9.5258   -3.7057   35.7333 C.3       1 UNK         0.1100 
     18 C18        -6.0367   -9.9580   41.4293 C.3       1 UNK        -0.0050 
     19 C19        -7.3338   -9.3322   41.9814 C.3       1 UNK         0.0800 
     20 N20        -5.9968  -10.0255   38.9474 N.2       1 UNK        -0.5991 
     21 N21        -7.9806   -8.4539   41.0125 N.am      1 UNK        -0.5000 
     22 O22        -6.8573   -6.5584   41.5060 O.2       1 UNK        -0.5000 
     23 O23        -9.6407   -7.2581   36.2170 O.3       1 UNK        -0.2850 
     24 O24        -9.7558   -3.1842   38.7106 O.3       1 UNK        -0.2850 
     25 O25       -10.3051   -4.6618   36.4350 O.3       1 UNK        -0.2850 
     26 S26        -6.7954  -12.3156   40.0048 S.3       1 UNK        -0.0839 
     27 H27        -6.3299  -11.3062   34.4839 H         1 UNK         0.1296 
     28 H28        -7.1441  -13.5609   35.1529 H         1 UNK         0.1749 
     29 H29        -5.7692   -9.6177   36.2294 H         1 UNK         0.2114 
     30 H30        -7.3856  -14.1263   37.5774 H         1 UNK         0.2050 
     31 H31        -8.3391   -8.2716   38.4054 H         1 UNK         0.1150 
     32 H32        -8.4492   -4.6304   40.6455 H         1 UNK         0.1150 
     33 H33        -9.6799   -8.9977   35.1233 H         1 UNK         0.0300 
     34 H34        -9.8143   -9.2335   36.8618 H         1 UNK         0.0300 
     35 H35        -8.2512   -8.7992   36.1286 H         1 UNK         0.0300 
     36 H36        -9.8741   -1.4230   39.7619 H         1 UNK         0.0300 
     37 H37        -8.4300   -2.3697   40.0964 H         1 UNK         0.0300 
     38 H38       -10.0076   -2.8698   40.7540 H         1 UNK         0.0300 
     39 H39       -10.0018   -3.4854   34.7781 H         1 UNK         0.0300 
     40 H40        -8.5235   -4.0838   35.5252 H         1 UNK         0.0300 
     41 H41        -9.4388   -2.7676   36.2806 H         1 UNK         0.0300 
     42 H42        -5.2749   -9.1849   41.3161 H         1 UNK         0.0600 
     43 H43        -5.6363  -10.6732   42.1481 H         1 UNK         0.0600 
     44 H44        -8.0392  -10.1234   42.2361 H         1 UNK         0.0600 
     45 H45        -7.1273   -8.7923   42.9074 H         1 UNK         0.0600 
     46 H46        -8.6614   -8.8565   40.3887 H         1 UNK         0.3000 
@<TRIPOS>BOND
     1    1    2 ar   
     2    1    3 ar   
     3    1   27 1    
     4    2    4 ar   
     5    2   28 1    
     6    3    8 ar   
     7    3   29 1    
     8    4   12 ar   
     9    4   30 1    
    10    5    7 ar   
    11    5    9 ar   
    12    5   31 1    
    13    6    7 ar   
    14    6   10 ar   
    15    6   32 1    
    16    7   14 1    
    17    8   12 ar   
    18    8   20 1    
    19    9   11 ar   
    20    9   23 1    
    21   10   11 ar   
    22   10   24 1    
    23   11   25 1    
    24   12   26 1    
    25   13   18 1    
    26   13   20 2    
    27   13   26 1    
    28   14   21 am   BACKBONE|DICT|INTERRES
    29   14   22 2    
    30   15   23 1    
    31   15   33 1    
    32   15   34 1    
    33   15   35 1    
    34   16   24 1    
    35   16   36 1    
    36   16   37 1    
    37   16   38 1    
    38   17   25 1    
    39   17   39 1    
    40   17   40 1    
    41   17   41 1    
    42   18   19 1    
    43   18   42 1    
    44   18   43 1    
    45   19   21 1    
    46   19   44 1    
    47   19   45 1    
    48   21   46 1    
@<TRIPOS>SUBSTRUCTURE
     1 UNK         1 GROUP             0       ****    0 ROOT    
@<TRIPOS>MOLECULE
ZINC17960159_231
56   59    1
SMALL
USER_CHARGES


@<TRIPOS>ATOM
      1 C1         -3.6558   -7.2057   33.6754 C.ar      1 UNK         0.0055 
      2 C2         -3.2816   -8.5232   33.3472 C.ar      1 UNK        -0.3011 
      3 C3         -4.1517   -6.9141   34.9612 C.ar      1 UNK        -0.4461 
      4 C4         -3.4101   -9.5503   34.3024 C.ar      1 UNK        -0.1407 
      5 C5         -8.9411   -5.7108   39.1038 C.ar      1 UNK        -0.1150 
      6 C6         -6.6821   -4.8298   39.2035 C.ar      1 UNK        -0.1150 
      7 C7         -7.8139   -5.3502   39.8638 C.ar      1 UNK        -0.1150 
      8 C8         -4.2858   -7.9204   35.9393 C.ar      1 UNK         0.6314 
      9 C9         -8.9473   -5.5922   37.7016 C.ar      1 UNK         0.0850 
     10 C10        -6.6542   -4.6963   37.7936 C.ar      1 UNK         0.0850 
     11 C11        -7.8078   -5.0485   37.0377 C.ar      1 UNK         0.0850 
     12 C12        -3.9100   -9.2483   35.5828 C.ar      1 UNK        -0.1027 
     13 C13        -4.7761   -8.9347   37.8709 C.2       1 UNK         0.2008 
     14 C14        -6.5623   -6.2937   41.8739 C.2       1 UNK         0.5000 
     15 C15        -6.7777   -8.6385   39.3534 C.3       1 UNK        -0.1200 
     16 C16        -4.3865   -8.2953   40.2767 C.3       1 UNK        -0.1200 
     17 C17        -7.2720   -8.4645   40.8025 C.3       1 UNK        -0.0500 
     18 C18        -5.0286   -8.2194   41.6742 C.3       1 UNK        -0.0500 
     19 C19        -5.2884   -9.0493   39.2718 C.3       1 UNK         0.0550 
     20 C20       -10.0796   -6.4427   35.7430 C.3       1 UNK         0.1100 
     21 C21        -4.3019   -4.1780   37.8204 C.3       1 UNK         0.1100 
     22 C22        -7.4292   -3.6276   35.1578 C.3       1 UNK         0.1100 
     23 C23        -7.8182   -5.5544   41.3778 C.3       1 UNK        -0.0050 
     24 N24        -4.7497   -7.7563   37.2367 N.2       1 UNK        -0.5991 
     25 N25        -6.3444   -7.5883   41.5281 N.am      1 UNK        -0.1400 
     26 O26        -5.7505   -5.6517   42.5406 O.2       1 UNK        -0.5000 
     27 O27       -10.1150   -6.0120   37.0955 O.3       1 UNK        -0.2850 
     28 O28        -5.5340   -4.2534   37.1171 O.3       1 UNK        -0.2850 
     29 O29        -7.8345   -4.8906   35.6685 O.3       1 UNK        -0.2850 
     30 S30        -4.1854  -10.3252   36.9509 S.3       1 UNK        -0.0839 
     31 H31        -3.5654   -6.4173   32.9414 H         1 UNK         0.1296 
     32 H32        -2.9008   -8.7451   32.3592 H         1 UNK         0.1749 
     33 H33        -4.4524   -5.9096   35.2198 H         1 UNK         0.2114 
     34 H34        -3.1323  -10.5654   34.0606 H         1 UNK         0.2050 
     35 H35        -9.8167   -6.1132   39.5915 H         1 UNK         0.1150 
     36 H36        -5.8258   -4.5564   39.8009 H         1 UNK         0.1150 
     37 H37        -7.3967   -9.3612   38.8212 H         1 UNK         0.0600 
     38 H38        -6.9102   -7.6962   38.8246 H         1 UNK         0.0600 
     39 H39        -4.2157   -7.2784   39.9185 H         1 UNK         0.0600 
     40 H40        -3.4050   -8.7674   40.3295 H         1 UNK         0.0600 
     41 H41        -8.2970   -8.0968   40.8085 H         1 UNK         0.0600 
     42 H42        -7.3103   -9.4348   41.2994 H         1 UNK         0.0600 
     43 H43        -5.1362   -9.2168   42.1020 H         1 UNK         0.0600 
     44 H44        -4.3744   -7.6730   42.3560 H         1 UNK         0.0600 
     45 H45        -5.2410  -10.1046   39.5434 H         1 UNK         0.0600 
     46 H46       -10.9622   -7.0487   35.5401 H         1 UNK         0.0300 
     47 H47        -9.2045   -7.0599   35.5321 H         1 UNK         0.0300 
     48 H48       -10.1056   -5.5955   35.0572 H         1 UNK         0.0300 
     49 H49        -3.5010   -3.9549   37.1160 H         1 UNK         0.0300 
     50 H50        -4.0563   -5.1243   38.3053 H         1 UNK         0.0300 
     51 H51        -4.3167   -3.3815   38.5651 H         1 UNK         0.0300 
     52 H52        -8.0142   -3.3986   34.2674 H         1 UNK         0.0300 
     53 H53        -6.3802   -3.6443   34.8620 H         1 UNK         0.0300 
     54 H54        -7.5858   -2.8171   35.8719 H         1 UNK         0.0300 
     55 H55        -7.8574   -4.5731   41.8516 H         1 UNK         0.0600 
     56 H56        -8.7127   -6.0825   41.7065 H         1 UNK         0.0600 
@<TRIPOS>BOND
     1    1    2 ar   
     2    1    3 ar   
     3    1   31 1    
     4    2    4 ar   
     5    2   32 1    
     6    3    8 ar   
     7    3   33 1    
     8    4   12 ar   
     9    4   34 1    
    10    5    7 ar   
    11    5    9 ar   
    12    5   35 1    
    13    6    7 ar   
    14    6   10 ar   
    15    6   36 1    
    16    7   23 1    
    17    8   12 ar   
    18    8   24 1    
    19    9   11 ar   
    20    9   27 1    
    21   10   11 ar   
    22   10   28 1    
    23   11   29 1    
    24   12   30 1    
    25   13   19 1    
    26   13   24 2    
    27   13   30 1    
    28   14   23 1    
    29   14   25 am   BACKBONE|DICT|INTERRES
    30   14   26 2    
    31   15   17 1    
    32   15   19 1    
    33   15   37 1    
    34   15   38 1    
    35   16   18 1    
    36   16   19 1    
    37   16   39 1    
    38   16   40 1    
    39   17   25 1    
    40   17   41 1    
    41   17   42 1    
    42   18   25 1    
    43   18   43 1    
    44   18   44 1    
    45   19   45 1    
    46   20   27 1    
    47   20   46 1    
    48   20   47 1    
    49   20   48 1    
    50   21   28 1    
    51   21   49 1    
    52   21   50 1    
    53   21   51 1    
    54   22   29 1    
    55   22   52 1    
    56   22   53 1    
    57   22   54 1    
    58   23   55 1    
    59   23   56 1    
@<TRIPOS>SUBSTRUCTURE
     1 UNK         1 GROUP             0       ****    0 ROOT    
@<TRIPOS>MOLECULE
ZINC19117759_224
53   55    1
SMALL
USER_CHARGES


@<TRIPOS>ATOM
      1 C1        -26.3147  -26.3650   38.1790 C.ar      1 UNK        -0.1150 
      2 C2        -28.1654  -27.2736   36.8946 C.ar      1 UNK        -0.1150 
      3 C3        -22.4409  -34.9065   37.0016 C.ar      1 UNK        -0.6890 
      4 C4        -26.8505  -27.3950   37.3800 C.ar      1 UNK        -0.1150 
      5 C5        -27.0804  -25.2359   38.5246 C.ar      1 UNK         0.0850 
      6 C6        -28.9600  -26.1619   37.2284 C.ar      1 UNK         0.0850 
      7 C7        -28.4070  -25.1145   38.0183 C.ar      1 UNK         0.0850 
      8 C8        -23.6864  -34.7765   36.3747 C.ar      1 UNK         0.5490 
      9 C9        -22.1192  -33.9270   37.9419 C.ar      1 UNK         0.8140 
     10 C10       -24.1034  -32.8851   37.5735 C.ar      1 UNK         0.7270 
     11 C11       -26.0164  -28.5787   36.9845 C.2       1 UNK         0.6150 
     12 C12       -26.4773  -30.6447   39.7280 C.3       1 UNK        -0.1200 
     13 C13       -25.5904  -31.8489   39.3593 C.3       1 UNK        -0.1200 
     14 C14       -25.7827  -29.3126   39.3846 C.3       1 UNK        -0.0500 
     15 C15       -24.4407  -30.3621   37.6382 C.3       1 UNK        -0.0500 
     16 C16       -25.0579  -31.7480   37.9146 C.3       1 UNK         0.0550 
     17 C17       -24.1645  -35.7630   35.3335 C.3       1 UNK        -0.0650 
     18 C18       -27.2080  -23.4605   40.1524 C.3       1 UNK         0.1100 
     19 C19       -31.2760  -25.6877   37.5764 C.3       1 UNK         0.1100 
     20 C20       -29.0542  -23.0631   37.1420 C.3       1 UNK         0.1100 
     21 N21       -24.5168  -33.7647   36.6683 N.ar      1 UNK        -0.8390 
     22 N22       -22.9461  -32.9193   38.2323 N.ar      1 UNK        -0.8390 
     23 N23       -25.4158  -29.3083   37.9583 N.am      1 UNK        -0.1400 
     24 O24       -25.8972  -28.8397   35.7885 O.2       1 UNK        -0.5000 
     25 O25       -20.9358  -33.9764   38.5968 O.3       1 UNK        -0.5850 
     26 O26       -26.4344  -24.3100   39.3177 O.3       1 UNK        -0.2850 
     27 O27       -30.2411  -26.1575   36.7226 O.3       1 UNK        -0.2850 
     28 O28       -29.1296  -23.9693   38.2324 O.3       1 UNK        -0.2850 
     29 H29       -25.2976  -26.4364   38.5366 H         1 UNK         0.1150 
     30 H30       -28.5763  -28.0488   36.2631 H         1 UNK         0.1150 
     31 H31       -21.7596  -35.7132   36.7778 H         1 UNK         0.1970 
     32 H32       -27.4240  -30.7108   39.1895 H         1 UNK         0.0600 
     33 H33       -26.7258  -30.6766   40.7897 H         1 UNK         0.0600 
     34 H34       -24.7455  -31.8907   40.0481 H         1 UNK         0.0600 
     35 H35       -26.1380  -32.7828   39.4892 H         1 UNK         0.0600 
     36 H36       -24.8821  -29.1878   39.9876 H         1 UNK         0.0600 
     37 H37       -26.4463  -28.4980   39.6691 H         1 UNK         0.0600 
     38 H38       -23.5478  -30.2205   38.2479 H         1 UNK         0.0600 
     39 H39       -24.0990  -30.3144   36.6026 H         1 UNK         0.0600 
     40 H40       -25.9170  -31.8483   37.2481 H         1 UNK         0.0600 
     41 H41       -25.1875  -36.0727   35.5479 H         1 UNK         0.0600 
     42 H42       -24.1448  -35.3029   34.3457 H         1 UNK         0.0600 
     43 H43       -23.5347  -36.6519   35.3140 H         1 UNK         0.0600 
     44 H44       -26.5797  -23.0911   40.9626 H         1 UNK         0.0300 
     45 H45       -27.5699  -22.5908   39.6044 H         1 UNK         0.0300 
     46 H46       -28.0515  -23.9838   40.6051 H         1 UNK         0.0300 
     47 H47       -31.4419  -24.6187   37.4465 H         1 UNK         0.0300 
     48 H48       -32.2068  -26.1925   37.3187 H         1 UNK         0.0300 
     49 H49       -31.0722  -25.8928   38.6287 H         1 UNK         0.0300 
     50 H50       -29.6405  -22.1725   37.3666 H         1 UNK         0.0300 
     51 H51       -28.0243  -22.7508   36.9626 H         1 UNK         0.0300 
     52 H52       -29.4489  -23.5019   36.2245 H         1 UNK         0.0300 
     53 H53       -20.9004  -33.2359   39.1798 H         1 UNK         0.4350 
@<TRIPOS>BOND
     1    1    4 ar   
     2    1    5 ar   
     3    1   29 1    
     4    2    4 ar   
     5    2    6 ar   
     6    2   30 1    
     7    3    8 ar   
     8    3    9 ar   
     9    3   31 1    
    10    4   11 1    
    11    5    7 ar   
    12    5   26 1    
    13    6    7 ar   
    14    6   27 1    
    15    7   28 1    
    16    8   17 1    
    17    8   21 ar   
    18    9   22 ar   
    19    9   25 1    
    20   10   16 1    
    21   10   21 ar   
    22   10   22 ar   
    23   11   23 am   BACKBONE|DICT|INTERRES
    24   11   24 2    
    25   12   13 1    
    26   12   14 1    
    27   12   32 1    
    28   12   33 1    
    29   13   16 1    
    30   13   34 1    
    31   13   35 1    
    32   14   23 1    
    33   14   36 1    
    34   14   37 1    
    35   15   16 1    
    36   15   23 1    
    37   15   38 1    
    38   15   39 1    
    39   16   40 1    
    40   17   41 1    
    41   17   42 1    
    42   17   43 1    
    43   18   26 1    
    44   18   44 1    
    45   18   45 1    
    46   18   46 1    
    47   19   27 1    
    48   19   47 1    
    49   19   48 1    
    50   19   49 1    
    51   20   28 1    
    52   20   50 1    
    53   20   51 1    
    54   20   52 1    
    55   25   53 1    
@<TRIPOS>SUBSTRUCTURE
     1 UNK         1 GROUP             0       ****    0 ROOT    
@<TRIPOS>MOLECULE
ZINC19497153_186
60   63    1
SMALL
USER_CHARGES


@<TRIPOS>ATOM
      1 C1         -8.4226   -5.9998   38.7614 C.ar      1 UNK        -0.1150 
      2 C2         -6.6175   -4.4222   39.1672 C.ar      1 UNK        -0.1150 
      3 C3         -7.2623   -5.6352   39.4717 C.ar      1 UNK        -0.1150 
      4 C4         -3.9294   -8.7318   36.3040 C.2       1 UNK        -0.3860 
      5 C5         -8.9003   -5.1927   37.7030 C.ar      1 UNK         0.0850 
      6 C6         -7.0816   -3.5858   38.1221 C.ar      1 UNK         0.0850 
      7 C7         -8.2194   -3.9980   37.3683 C.ar      1 UNK         0.0850 
      8 C8         -4.0825   -9.7800   35.3670 C.2       1 UNK         0.3430 
      9 C9         -4.5436   -9.2133   37.4243 C.2       1 UNK         0.2330 
     10 C10        -6.7487   -6.4816   40.6011 C.2       1 UNK         0.6150 
     11 C11        -3.2436   -7.4281   36.0066 C.3       1 UNK        -0.0050 
     12 C12        -3.5668   -9.7412   33.9627 C.3       1 UNK        -0.0050 
     13 C13        -3.2114   -8.2894   33.5683 C.3       1 UNK        -0.1200 
     14 C14        -4.5205   -8.9483   41.3053 C.3       1 UNK        -0.1200 
     15 C15        -4.1746   -9.4966   39.9074 C.3       1 UNK        -0.1200 
     16 C16        -6.0333   -8.6921   41.4384 C.3       1 UNK        -0.0500 
     17 C17        -6.2910   -8.4053   39.0392 C.3       1 UNK        -0.0500 
     18 C18        -4.7887   -8.6376   38.7811 C.3       1 UNK         0.0550 
     19 C19        -2.4504   -7.5099   34.6758 C.3       1 UNK        -0.0600 
     20 C20        -2.0393   -6.1130   34.1900 C.3       1 UNK        -0.1800 
     21 C21       -10.7164   -6.7078   37.2450 C.3       1 UNK         0.1100 
     22 C22        -5.4237   -1.9126   38.6574 C.3       1 UNK         0.1100 
     23 C23        -7.8887   -2.5471   35.4722 C.3       1 UNK         0.1100 
     24 N24        -4.7321  -10.8159   35.8619 N.2       1 UNK        -0.4130 
     25 N25        -6.4660   -7.7881   40.3642 N.am      1 UNK        -0.1400 
     26 O26        -6.5873   -5.9545   41.7007 O.2       1 UNK        -0.5000 
     27 O27        -5.0382  -10.4583   37.1812 O.3       1 UNK        -0.1220 
     28 O28       -10.0112   -5.5125   36.9486 O.3       1 UNK        -0.2850 
     29 O29        -6.4793   -2.3780   37.8286 O.3       1 UNK        -0.2850 
     30 O30        -8.7596   -3.2808   36.3189 O.3       1 UNK        -0.2850 
     31 H31        -8.9264   -6.9123   39.0412 H         1 UNK         0.1150 
     32 H32        -5.7604   -4.1533   39.7660 H         1 UNK         0.1150 
     33 H33        -3.9882   -6.6340   35.9343 H         1 UNK         0.0600 
     34 H34        -2.5746   -7.1375   36.8174 H         1 UNK         0.0600 
     35 H35        -2.6793  -10.3699   33.8895 H         1 UNK         0.0600 
     36 H36        -4.3005  -10.1541   33.2700 H         1 UNK         0.0600 
     37 H37        -2.6425   -8.2960   32.6382 H         1 UNK         0.0600 
     38 H38        -4.1383   -7.7556   33.3532 H         1 UNK         0.0600 
     39 H39        -4.1885   -9.6473   42.0740 H         1 UNK         0.0600 
     40 H40        -3.9778   -8.0182   41.4816 H         1 UNK         0.0600 
     41 H41        -3.0929   -9.5613   39.7838 H         1 UNK         0.0600 
     42 H42        -4.5515  -10.5175   39.8267 H         1 UNK         0.0600 
     43 H43        -6.5840   -9.6309   41.3645 H         1 UNK         0.0600 
     44 H44        -6.2602   -8.2960   42.4303 H         1 UNK         0.0600 
     45 H45        -6.6901   -7.8110   38.2200 H         1 UNK         0.0600 
     46 H46        -6.8323   -9.3521   39.0050 H         1 UNK         0.0600 
     47 H47        -4.2981   -7.6637   38.8120 H         1 UNK         0.0600 
     48 H48        -1.5351   -8.0692   34.8787 H         1 UNK         0.0600 
     49 H49        -2.9102   -5.5024   33.9488 H         1 UNK         0.0600 
     50 H50        -1.4182   -6.1729   33.2958 H         1 UNK         0.0600 
     51 H51        -1.4642   -5.5856   34.9519 H         1 UNK         0.0600 
     52 H52       -11.5559   -6.8077   36.5571 H         1 UNK         0.0300 
     53 H53       -11.1209   -6.6912   38.2577 H         1 UNK         0.0300 
     54 H54       -10.0824   -7.5865   37.1201 H         1 UNK         0.0300 
     55 H55        -5.1078   -0.9274   38.3150 H         1 UNK         0.0300 
     56 H56        -4.5560   -2.5714   38.6067 H         1 UNK         0.0300 
     57 H57        -5.7441   -1.8114   39.6954 H         1 UNK         0.0300 
     58 H58        -8.3554   -2.4383   34.4936 H         1 UNK         0.0300 
     59 H59        -6.9330   -3.0524   35.3249 H         1 UNK         0.0300 
     60 H60        -7.7149   -1.5437   35.8608 H         1 UNK         0.0300 
@<TRIPOS>BOND
     1    1    3 ar   
     2    1    5 ar   
     3    1   31 1    
     4    2    3 ar   
     5    2    6 ar   
     6    2   32 1    
     7    3   10 1    
     8    4    8 1    
     9    4    9 2    
    10    4   11 1    
    11    5    7 ar   
    12    5   28 1    
    13    6    7 ar   
    14    6   29 1    
    15    7   30 1    
    16    8   12 1    
    17    8   24 2    
    18    9   18 1    
    19    9   27 1    
    20   10   25 am   BACKBONE|DICT|INTERRES
    21   10   26 2    
    22   11   19 1    
    23   11   33 1    
    24   11   34 1    
    25   12   13 1    
    26   12   35 1    
    27   12   36 1    
    28   13   19 1    
    29   13   37 1    
    30   13   38 1    
    31   14   15 1    
    32   14   16 1    
    33   14   39 1    
    34   14   40 1    
    35   15   18 1    
    36   15   41 1    
    37   15   42 1    
    38   16   25 1    
    39   16   43 1    
    40   16   44 1    
    41   17   18 1    
    42   17   25 1    
    43   17   45 1    
    44   17   46 1    
    45   18   47 1    
    46   19   20 1    
    47   19   48 1    
    48   20   49 1    
    49   20   50 1    
    50   20   51 1    
    51   21   28 1    
    52   21   52 1    
    53   21   53 1    
    54   21   54 1    
    55   22   29 1    
    56   22   55 1    
    57   22   56 1    
    58   22   57 1    
    59   23   30 1    
    60   23   58 1    
    61   23   59 1    
    62   23   60 1    
    63   24   27 1    
@<TRIPOS>SUBSTRUCTURE
     1 UNK         1 GROUP             0       ****    0 ROOT    
@<TRIPOS>MOLECULE
ZINC19497154_194
60   63    1
SMALL
USER_CHARGES


@<TRIPOS>ATOM
      1 C1         -6.9576   -4.0837   39.7230 C.ar      1 UNK        -0.1150 
      2 C2         -7.9839   -6.0180   38.6587 C.ar      1 UNK        -0.1150 
      3 C3         -7.2009   -5.4713   39.6985 C.ar      1 UNK        -0.1150 
      4 C4         -5.0219  -10.7008   36.9332 C.2       1 UNK        -0.3860 
      5 C5         -7.4435   -3.2436   38.6937 C.ar      1 UNK         0.0850 
      6 C6         -8.4697   -5.2005   37.6098 C.ar      1 UNK         0.0850 
      7 C7         -8.1806   -3.8137   37.6321 C.ar      1 UNK         0.0850 
      8 C8         -5.1162  -10.4579   35.5404 C.2       1 UNK         0.3430 
      9 C9         -5.7209   -9.6584   37.4859 C.2       1 UNK         0.2330 
     10 C10        -6.7017   -6.3203   40.8351 C.2       1 UNK         0.6150 
     11 C11        -4.3049  -11.8911   37.5198 C.3       1 UNK        -0.0050 
     12 C12        -4.5302  -11.3326   34.4764 C.3       1 UNK        -0.0050 
     13 C13        -4.1605  -12.7105   35.0684 C.3       1 UNK        -0.1200 
     14 C14        -6.1733   -9.7588   41.3685 C.3       1 UNK        -0.1200 
     15 C15        -5.7793  -10.2684   39.9707 C.3       1 UNK        -0.1200 
     16 C16        -5.5705   -8.3679   41.6359 C.3       1 UNK        -0.0500 
     17 C17        -5.4765   -7.8723   39.2549 C.3       1 UNK        -0.0500 
     18 C18        -6.1024   -9.2322   38.8729 C.3       1 UNK         0.0550 
     19 C19        -3.4600  -12.6351   36.4514 C.3       1 UNK        -0.0600 
     20 C20        -2.0505  -12.0298   36.3345 C.3       1 UNK        -0.1800 
     21 C21        -6.5670   -1.2690   39.7500 C.3       1 UNK         0.1100 
     22 C22        -9.4445   -7.0813   36.4639 C.3       1 UNK         0.1100 
     23 C23        -8.0135   -3.1709   35.3838 C.3       1 UNK         0.1100 
     24 N24        -5.7877   -9.3609   35.2558 N.2       1 UNK        -0.4130 
     25 N25        -5.9856   -7.4446   40.5691 N.am      1 UNK        -0.1400 
     26 O26        -6.9456   -5.9495   41.9826 O.2       1 UNK        -0.5000 
     27 O27        -6.1748   -8.8431   36.4951 O.3       1 UNK        -0.1220 
     28 O28        -7.2297   -1.8810   38.6540 O.3       1 UNK        -0.2850 
     29 O29        -9.2376   -5.6808   36.5686 O.3       1 UNK        -0.2850 
     30 O30        -8.6397   -2.9800   36.6426 O.3       1 UNK        -0.2850 
     31 H31        -6.3930   -3.6844   40.5522 H         1 UNK         0.1150 
     32 H32        -8.2110   -7.0709   38.6880 H         1 UNK         0.1150 
     33 H33        -3.6653  -11.6084   38.3551 H         1 UNK         0.0600 
     34 H34        -5.0361  -12.5887   37.9299 H         1 UNK         0.0600 
     35 H35        -5.2290  -11.4519   33.6480 H         1 UNK         0.0600 
     36 H36        -3.6412  -10.8544   34.0655 H         1 UNK         0.0600 
     37 H37        -5.0819  -13.2808   35.1949 H         1 UNK         0.0600 
     38 H38        -3.5569  -13.2736   34.3560 H         1 UNK         0.0600 
     39 H39        -7.2602   -9.7075   41.4508 H         1 UNK         0.0600 
     40 H40        -5.8407  -10.4639   42.1312 H         1 UNK         0.0600 
     41 H41        -4.7098  -10.4747   39.9736 H         1 UNK         0.0600 
     42 H42        -6.2833  -11.2124   39.7603 H         1 UNK         0.0600 
     43 H43        -5.8724   -8.0314   42.6298 H         1 UNK         0.0600 
     44 H44        -4.4813   -8.4221   41.6618 H         1 UNK         0.0600 
     45 H45        -4.3910   -7.9679   39.3055 H         1 UNK         0.0600 
     46 H46        -5.6491   -7.1363   38.4708 H         1 UNK         0.0600 
     47 H47        -7.1855   -9.1092   38.8663 H         1 UNK         0.0600 
     48 H48        -3.3169  -13.6571   36.8071 H         1 UNK         0.0600 
     49 H49        -2.0864  -10.9813   36.0368 H         1 UNK         0.0600 
     50 H50        -1.4500  -12.5650   35.5985 H         1 UNK         0.0600 
     51 H51        -1.5195  -12.0816   37.2856 H         1 UNK         0.0600 
     52 H52        -6.5228   -0.1923   39.5864 H         1 UNK         0.0300 
     53 H53        -5.5424   -1.6295   39.8475 H         1 UNK         0.0300 
     54 H54        -7.1019   -1.4378   40.6857 H         1 UNK         0.0300 
     55 H55       -10.0088   -7.2938   35.5560 H         1 UNK         0.0300 
     56 H56       -10.0215   -7.4632   37.3069 H         1 UNK         0.0300 
     57 H57        -8.5000   -7.6211   36.3956 H         1 UNK         0.0300 
     58 H58        -8.2510   -2.3298   34.7334 H         1 UNK         0.0300 
     59 H59        -8.3586   -4.0773   34.8877 H         1 UNK         0.0300 
     60 H60        -6.9278   -3.2172   35.4824 H         1 UNK         0.0300 
@<TRIPOS>BOND
     1    1    3 ar   
     2    1    5 ar   
     3    1   31 1    
     4    2    3 ar   
     5    2    6 ar   
     6    2   32 1    
     7    3   10 1    
     8    4    8 1    
     9    4    9 2    
    10    4   11 1    
    11    5    7 ar   
    12    5   28 1    
    13    6    7 ar   
    14    6   29 1    
    15    7   30 1    
    16    8   12 1    
    17    8   24 2    
    18    9   18 1    
    19    9   27 1    
    20   10   25 am   BACKBONE|DICT|INTERRES
    21   10   26 2    
    22   11   19 1    
    23   11   33 1    
    24   11   34 1    
    25   12   13 1    
    26   12   35 1    
    27   12   36 1    
    28   13   19 1    
    29   13   37 1    
    30   13   38 1    
    31   14   15 1    
    32   14   16 1    
    33   14   39 1    
    34   14   40 1    
    35   15   18 1    
    36   15   41 1    
    37   15   42 1    
    38   16   25 1    
    39   16   43 1    
    40   16   44 1    
    41   17   18 1    
    42   17   25 1    
    43   17   45 1    
    44   17   46 1    
    45   18   47 1    
    46   19   20 1    
    47   19   48 1    
    48   20   49 1    
    49   20   50 1    
    50   20   51 1    
    51   21   28 1    
    52   21   52 1    
    53   21   53 1    
    54   21   54 1    
    55   22   29 1    
    56   22   55 1    
    57   22   56 1    
    58   22   57 1    
    59   23   30 1    
    60   23   58 1    
    61   23   59 1    
    62   23   60 1    
    63   24   27 1    
@<TRIPOS>SUBSTRUCTURE
     1 UNK         1 GROUP             0       ****    0 ROOT    
@<TRIPOS>MOLECULE
ZINC19497155_188
60   63    1
SMALL
USER_CHARGES


@<TRIPOS>ATOM
      1 C1         -8.4372   -6.0011   38.7811 C.ar      1 UNK        -0.1150 
      2 C2         -6.6162   -4.4357   39.1650 C.ar      1 UNK        -0.1150 
      3 C3         -7.2689   -5.6415   39.4809 C.ar      1 UNK        -0.1150 
      4 C4         -3.9603   -8.7069   36.2883 C.2       1 UNK        -0.3860 
      5 C5         -8.9155   -5.1965   37.7210 C.ar      1 UNK         0.0850 
      6 C6         -7.0803   -3.6025   38.1174 C.ar      1 UNK         0.0850 
      7 C7         -8.2265   -4.0100   37.3740 C.ar      1 UNK         0.0850 
      8 C8         -4.0964   -9.7604   35.3547 C.2       1 UNK         0.3430 
      9 C9         -4.5578   -9.1987   37.4132 C.2       1 UNK         0.2330 
     10 C10        -6.7521   -6.4876   40.6086 C.2       1 UNK         0.6150 
     11 C11        -3.2925   -7.3944   35.9882 C.3       1 UNK        -0.0050 
     12 C12        -3.6005   -9.7094   33.9437 C.3       1 UNK        -0.0050 
     13 C13        -2.6035   -8.5404   33.7742 C.3       1 UNK        -0.1200 
     14 C14        -4.5109   -8.9420   41.2950 C.3       1 UNK        -0.1200 
     15 C15        -4.1701   -9.4843   39.8933 C.3       1 UNK        -0.1200 
     16 C16        -6.0245   -8.6964   41.4389 C.3       1 UNK        -0.0500 
     17 C17        -6.3011   -8.4087   39.0424 C.3       1 UNK        -0.0500 
     18 C18        -4.7990   -8.6281   38.7728 C.3       1 UNK         0.0550 
     19 C19        -3.0612   -7.2254   34.4632 C.3       1 UNK        -0.0600 
     20 C20        -2.0836   -6.0772   34.1753 C.3       1 UNK        -0.1800 
     21 C21       -10.7439   -6.7026   37.2807 C.3       1 UNK         0.1100 
     22 C22        -5.4084   -1.9369   38.6327 C.3       1 UNK         0.1100 
     23 C23        -7.8910   -2.5869   35.4594 C.3       1 UNK         0.1100 
     24 N24        -4.7326  -10.8037   35.8518 N.2       1 UNK        -0.4130 
     25 N25        -6.4699   -7.7936   40.3691 N.am      1 UNK        -0.1400 
     26 O26        -6.5863   -5.9605   41.7076 O.2       1 UNK        -0.5000 
     27 O27        -5.0363  -10.4505   37.1728 O.3       1 UNK        -0.1220 
     28 O28       -10.0341   -5.5119   36.9760 O.3       1 UNK        -0.2850 
     29 O29        -6.4695   -2.4023   37.8106 O.3       1 UNK        -0.2850 
     30 O30        -8.7666   -3.2944   36.3237 O.3       1 UNK        -0.2850 
     31 H31        -8.9461   -6.9080   39.0698 H         1 UNK         0.1150 
     32 H32        -5.7522   -4.1708   39.7556 H         1 UNK         0.1150 
     33 H33        -3.8795   -6.5557   36.3651 H         1 UNK         0.0600 
     34 H34        -2.3342   -7.3463   36.5070 H         1 UNK         0.0600 
     35 H35        -3.1314  -10.6533   33.6647 H         1 UNK         0.0600 
     36 H36        -4.4472   -9.5707   33.2713 H         1 UNK         0.0600 
     37 H37        -1.6485   -8.8378   34.2099 H         1 UNK         0.0600 
     38 H38        -2.4153   -8.3766   32.7128 H         1 UNK         0.0600 
     39 H39        -4.1689   -9.6405   42.0597 H         1 UNK         0.0600 
     40 H40        -3.9735   -8.0083   41.4698 H         1 UNK         0.0600 
     41 H41        -3.0886   -9.5401   39.7622 H         1 UNK         0.0600 
     42 H42        -4.5392  -10.5080   39.8125 H         1 UNK         0.0600 
     43 H43        -6.5692   -9.6390   41.3670 H         1 UNK         0.0600 
     44 H44        -6.2476   -8.3036   42.4331 H         1 UNK         0.0600 
     45 H45        -6.7123   -7.8174   38.2269 H         1 UNK         0.0600 
     46 H46        -6.8349   -9.3600   39.0115 H         1 UNK         0.0600 
     47 H47        -4.3159   -7.6504   38.8024 H         1 UNK         0.0600 
     48 H48        -4.0217   -6.9579   34.0184 H         1 UNK         0.0600 
     49 H49        -1.0920   -6.2874   34.5778 H         1 UNK         0.0600 
     50 H50        -2.4318   -5.1439   34.6192 H         1 UNK         0.0600 
     51 H51        -1.9773   -5.9093   33.1030 H         1 UNK         0.0600 
     52 H52       -11.5872   -6.8012   36.5971 H         1 UNK         0.0300 
     53 H53       -11.1436   -6.6797   38.2953 H         1 UNK         0.0300 
     54 H54       -10.1148   -7.5853   37.1567 H         1 UNK         0.0300 
     55 H55        -5.0880   -0.9560   38.2819 H         1 UNK         0.0300 
     56 H56        -4.5446   -2.6010   38.5838 H         1 UNK         0.0300 
     57 H57        -5.7250   -1.8265   39.6709 H         1 UNK         0.0300 
     58 H58        -8.3636   -2.4850   34.4827 H         1 UNK         0.0300 
     59 H59        -6.9444   -3.1092   35.3120 H         1 UNK         0.0300 
     60 H60        -7.6980   -1.5807   35.8320 H         1 UNK         0.0300 
@<TRIPOS>BOND
     1    1    3 ar   
     2    1    5 ar   
     3    1   31 1    
     4    2    3 ar   
     5    2    6 ar   
     6    2   32 1    
     7    3   10 1    
     8    4    8 1    
     9    4    9 2    
    10    4   11 1    
    11    5    7 ar   
    12    5   28 1    
    13    6    7 ar   
    14    6   29 1    
    15    7   30 1    
    16    8   12 1    
    17    8   24 2    
    18    9   18 1    
    19    9   27 1    
    20   10   25 am   BACKBONE|DICT|INTERRES
    21   10   26 2    
    22   11   19 1    
    23   11   33 1    
    24   11   34 1    
    25   12   13 1    
    26   12   35 1    
    27   12   36 1    
    28   13   19 1    
    29   13   37 1    
    30   13   38 1    
    31   14   15 1    
    32   14   16 1    
    33   14   39 1    
    34   14   40 1    
    35   15   18 1    
    36   15   41 1    
    37   15   42 1    
    38   16   25 1    
    39   16   43 1    
    40   16   44 1    
    41   17   18 1    
    42   17   25 1    
    43   17   45 1    
    44   17   46 1    
    45   18   47 1    
    46   19   20 1    
    47   19   48 1    
    48   20   49 1    
    49   20   50 1    
    50   20   51 1    
    51   21   28 1    
    52   21   52 1    
    53   21   53 1    
    54   21   54 1    
    55   22   29 1    
    56   22   55 1    
    57   22   56 1    
    58   22   57 1    
    59   23   30 1    
    60   23   58 1    
    61   23   59 1    
    62   23   60 1    
    63   24   27 1    
@<TRIPOS>SUBSTRUCTURE
     1 UNK         1 GROUP             0       ****    0 ROOT    
@<TRIPOS>MOLECULE
ZINC19497156_247
60   63    1
SMALL
USER_CHARGES


@<TRIPOS>ATOM
      1 C1         -6.9376   -4.0562   39.7543 C.ar      1 UNK        -0.1150 
      2 C2         -8.0191   -5.9589   38.6875 C.ar      1 UNK        -0.1150 
      3 C3         -7.1977   -5.4405   39.7121 C.ar      1 UNK        -0.1150 
      4 C4         -5.0934  -10.6148   36.7995 C.2       1 UNK        -0.3860 
      5 C5         -7.4476   -3.1916   38.7573 C.ar      1 UNK         0.0850 
      6 C6         -8.5302   -5.1162   37.6709 C.ar      1 UNK         0.0850 
      7 C7         -8.2266   -3.7330   37.7106 C.ar      1 UNK         0.0850 
      8 C8         -5.1807  -10.3297   35.4144 C.2       1 UNK         0.3430 
      9 C9         -5.8118   -9.6009   37.3792 C.2       1 UNK         0.2330 
     10 C10        -6.6730   -6.3160   40.8167 C.2       1 UNK         0.6150 
     11 C11        -4.3353  -11.7937   37.3555 C.3       1 UNK        -0.0050 
     12 C12        -4.5570  -11.1509   34.3288 C.3       1 UNK        -0.0050 
     13 C13        -3.5122  -12.1195   34.9262 C.3       1 UNK        -0.1200 
     14 C14        -6.1690   -9.7727   41.2693 C.3       1 UNK        -0.1200 
     15 C15        -5.8301  -10.2610   39.8496 C.3       1 UNK        -0.1200 
     16 C16        -5.5448   -8.3930   41.5438 C.3       1 UNK        -0.0500 
     17 C17        -5.5183   -7.8538   39.1720 C.3       1 UNK        -0.0500 
     18 C18        -6.1678   -9.2000   38.7802 C.3       1 UNK         0.0550 
     19 C19        -3.9671  -12.8080   36.2407 C.3       1 UNK        -0.0600 
     20 C20        -5.1153  -13.8005   35.9891 C.3       1 UNK        -0.1800 
     21 C21        -6.5122   -1.2468   39.8186 C.3       1 UNK         0.1100 
     22 C22        -9.5313   -6.9674   36.5006 C.3       1 UNK         0.1100 
     23 C23        -8.1319   -3.0483   35.4694 C.3       1 UNK         0.1100 
     24 N24        -5.8903   -9.2499   35.1574 N.2       1 UNK        -0.4130 
     25 N25        -5.9835   -7.4459   40.5081 N.am      1 UNK        -0.1400 
     26 O26        -6.8719   -5.9612   41.9779 O.2       1 UNK        -0.5000 
     27 O27        -6.2913   -8.7748   36.4096 O.3       1 UNK        -0.1220 
     28 O28        -7.2188   -1.8309   38.7352 O.3       1 UNK        -0.2850 
     29 O29        -9.3369   -5.5687   36.6468 O.3       1 UNK        -0.2850 
     30 O30        -8.7099   -2.8749   36.7538 O.3       1 UNK        -0.2850 
     31 H31        -6.3412   -3.6789   40.5714 H         1 UNK         0.1150 
     32 H32        -8.2572   -7.0097   38.7038 H         1 UNK         0.1150 
     33 H33        -3.4145  -11.4438   37.8238 H         1 UNK         0.0600 
     34 H34        -4.8906  -12.3019   38.1432 H         1 UNK         0.0600 
     35 H35        -5.3341  -11.7169   33.8154 H         1 UNK         0.0600 
     36 H36        -4.0932  -10.5100   33.5785 H         1 UNK         0.0600 
     37 H37        -3.2184  -12.8581   34.1799 H         1 UNK         0.0600 
     38 H38        -2.6112  -11.5464   35.1492 H         1 UNK         0.0600 
     39 H39        -7.2519   -9.7130   41.3893 H         1 UNK         0.0600 
     40 H40        -5.8185  -10.4957   42.0071 H         1 UNK         0.0600 
     41 H41        -4.7655  -10.4927   39.8082 H         1 UNK         0.0600 
     42 H42        -6.3641  -11.1888   39.6411 H         1 UNK         0.0600 
     43 H43        -5.8142   -8.0732   42.5523 H         1 UNK         0.0600 
     44 H44        -4.4558   -8.4570   41.5362 H         1 UNK         0.0600 
     45 H45        -4.4330   -7.9620   39.1904 H         1 UNK         0.0600 
     46 H46        -5.7042   -7.1010   38.4072 H         1 UNK         0.0600 
     47 H47        -7.2496   -9.0665   38.7971 H         1 UNK         0.0600 
     48 H48        -3.1309  -13.4047   36.6095 H         1 UNK         0.0600 
     49 H49        -6.0249  -13.2918   35.6680 H         1 UNK         0.0600 
     50 H50        -5.3557  -14.3606   36.8931 H         1 UNK         0.0600 
     51 H51        -4.8499  -14.5251   35.2188 H         1 UNK         0.0600 
     52 H52        -6.4532   -0.1688   39.6687 H         1 UNK         0.0300 
     53 H53        -5.4916   -1.6266   39.8806 H         1 UNK         0.0300 
     54 H54        -7.0226   -1.4198   40.7672 H         1 UNK         0.0300 
     55 H55       -10.1266   -7.1554   35.6073 H         1 UNK         0.0300 
     56 H56       -10.0716   -7.3868   37.3499 H         1 UNK         0.0300 
     57 H57        -8.5829   -7.4909   36.3780 H         1 UNK         0.0300 
     58 H58        -8.3853   -2.1930   34.8433 H         1 UNK         0.0300 
     59 H59        -8.5036   -3.9421   34.9695 H         1 UNK         0.0300 
     60 H60        -7.0438   -3.1063   35.5271 H         1 UNK         0.0300 
@<TRIPOS>BOND
     1    1    3 ar   
     2    1    5 ar   
     3    1   31 1    
     4    2    3 ar   
     5    2    6 ar   
     6    2   32 1    
     7    3   10 1    
     8    4    8 1    
     9    4    9 2    
    10    4   11 1    
    11    5    7 ar   
    12    5   28 1    
    13    6    7 ar   
    14    6   29 1    
    15    7   30 1    
    16    8   12 1    
    17    8   24 2    
    18    9   18 1    
    19    9   27 1    
    20   10   25 am   BACKBONE|DICT|INTERRES
    21   10   26 2    
    22   11   19 1    
    23   11   33 1    
    24   11   34 1    
    25   12   13 1    
    26   12   35 1    
    27   12   36 1    
    28   13   19 1    
    29   13   37 1    
    30   13   38 1    
    31   14   15 1    
    32   14   16 1    
    33   14   39 1    
    34   14   40 1    
    35   15   18 1    
    36   15   41 1    
    37   15   42 1    
    38   16   25 1    
    39   16   43 1    
    40   16   44 1    
    41   17   18 1    
    42   17   25 1    
    43   17   45 1    
    44   17   46 1    
    45   18   47 1    
    46   19   20 1    
    47   19   48 1    
    48   20   49 1    
    49   20   50 1    
    50   20   51 1    
    51   21   28 1    
    52   21   52 1    
    53   21   53 1    
    54   21   54 1    
    55   22   29 1    
    56   22   55 1    
    57   22   56 1    
    58   22   57 1    
    59   23   30 1    
    60   23   58 1    
    61   23   59 1    
    62   23   60 1    
    63   24   27 1    
@<TRIPOS>SUBSTRUCTURE
     1 UNK         1 GROUP             0       ****    0 ROOT    
@<TRIPOS>MOLECULE
ZINC19549511_173
54   57    1
SMALL
USER_CHARGES


@<TRIPOS>ATOM
      1 C1         -4.8156  -12.4176   33.3943 C.ar      1 UNK        -0.5355 
      2 C2         -4.5170  -11.2649   34.1484 C.ar      1 UNK        -0.0065 
      3 C3         -4.9753  -10.1881   36.5231 C.ar      1 UNK        -0.4676 
      4 C4         -7.9030   -5.7533   39.2125 C.ar      1 UNK        -0.1150 
      5 C5         -9.6295   -7.3874   38.7052 C.ar      1 UNK        -0.1150 
      6 C6         -5.6167  -13.4280   33.9641 C.ar      1 UNK         0.3847 
      7 C7         -5.0300  -11.1511   35.4575 C.ar      1 UNK         0.0033 
      8 C8         -8.5144   -6.9940   39.4705 C.ar      1 UNK        -0.1150 
      9 C9         -8.3516   -4.9172   38.1601 C.ar      1 UNK         0.0850 
     10 C10       -10.0910   -6.5811   37.6392 C.ar      1 UNK         0.0850 
     11 C11        -9.4405   -5.3575   37.3509 C.ar      1 UNK         0.0850 
     12 C12        -5.7142  -10.6997   37.5603 C.ar      1 UNK         0.0504 
     13 C13        -5.8209  -12.2462   35.8965 C.ar      1 UNK         0.6662 
     14 C14        -8.0230   -7.8384   40.6116 C.2       1 UNK         0.6150 
     15 C15        -5.9031  -10.4160   41.4296 C.3       1 UNK        -0.1200 
     16 C16        -5.5228  -11.0015   40.0582 C.3       1 UNK        -0.1200 
     17 C17        -7.4009  -10.0658   41.4796 C.3       1 UNK        -0.0500 
     18 C18        -7.4984   -9.7578   39.0637 C.3       1 UNK        -0.0500 
     19 C19        -6.0034  -10.1026   38.9008 C.3       1 UNK         0.0550 
     20 C20        -6.7652   -3.2041   38.7823 C.3       1 UNK         0.1100 
     21 C21       -11.8364   -8.1491   37.0897 C.3       1 UNK         0.1100 
     22 C22        -9.0985   -3.8303   35.5128 C.3       1 UNK         0.1100 
     23 N23        -6.1349  -13.3752   35.2095 N.ar      1 UNK        -0.7065 
     24 N24        -6.2172  -11.9332   37.1742 N.pl3     1 UNK        -0.5442 
     25 N25        -7.7274   -9.1437   40.3827 N.am      1 UNK        -0.1400 
     26 O26        -7.9071   -7.3146   41.7187 O.2       1 UNK        -0.5000 
     27 O27        -7.7808   -3.6839   37.9128 O.3       1 UNK        -0.2850 
     28 O28       -11.1580   -6.9288   36.8350 O.3       1 UNK        -0.2850 
     29 O29        -9.9630   -4.6472   36.2873 O.3       1 UNK        -0.2850 
     30 H30        -4.4380  -12.5310   32.3879 H         1 UNK         0.2045 
     31 H31        -3.9065  -10.4766   33.7346 H         1 UNK         0.1538 
     32 H32        -4.4520   -9.2435   36.4951 H         1 UNK         0.2277 
     33 H33        -7.0840   -5.4632   39.8532 H         1 UNK         0.1150 
     34 H34       -10.1121   -8.3208   38.9498 H         1 UNK         0.1150 
     35 H35        -5.8521  -14.3160   33.3948 H         1 UNK         0.0641 
     36 H36        -5.6554  -11.1246   42.2208 H         1 UNK         0.0600 
     37 H37        -5.3125   -9.5191   41.6246 H         1 UNK         0.0600 
     38 H38        -4.4431  -11.1447   39.9969 H         1 UNK         0.0600 
     39 H39        -5.9680  -11.9924   39.9642 H         1 UNK         0.0600 
     40 H40        -8.0039  -10.9692   41.3796 H         1 UNK         0.0600 
     41 H41        -7.6522   -9.6530   42.4588 H         1 UNK         0.0600 
     42 H42        -7.7829   -9.1189   38.2297 H         1 UNK         0.0600 
     43 H43        -8.1126  -10.6543   38.9747 H         1 UNK         0.0600 
     44 H44        -5.4469   -9.1659   38.9695 H         1 UNK         0.0600 
     45 H45        -6.4606   -2.2084   38.4607 H         1 UNK         0.0300 
     46 H46        -5.8810   -3.8418   38.7549 H         1 UNK         0.0300 
     47 H47        -7.1239   -3.1217   39.8093 H         1 UNK         0.0300 
     48 H48       -12.6428   -8.2684   36.3662 H         1 UNK         0.0300 
     49 H49       -12.2833   -8.1560   38.0846 H         1 UNK         0.0300 
     50 H50       -11.1702   -9.0062   36.9839 H         1 UNK         0.0300 
     51 H51        -9.5255   -3.7051   34.5182 H         1 UNK         0.0300 
     52 H52        -8.1098   -4.2750   35.3906 H         1 UNK         0.0300 
     53 H53        -9.0005   -2.8361   35.9490 H         1 UNK         0.0300 
     54 H54        -6.7904  -12.5295   37.7467 H         1 UNK         0.3906 
@<TRIPOS>BOND
     1    1    2 ar   
     2    1    6 ar   
     3    1   30 1    
     4    2    7 ar   
     5    2   31 1    
     6    3    7 ar   
     7    3   12 ar   
     8    3   32 1    
     9    4    8 ar   
    10    4    9 ar   
    11    4   33 1    
    12    5    8 ar   
    13    5   10 ar   
    14    5   34 1    
    15    6   23 ar   
    16    6   35 1    
    17    7   13 ar   
    18    8   14 1    
    19    9   11 ar   
    20    9   27 1    
    21   10   11 ar   
    22   10   28 1    
    23   11   29 1    
    24   12   19 1    
    25   12   24 ar   
    26   13   23 ar   
    27   13   24 ar   
    28   14   25 am   BACKBONE|DICT|INTERRES
    29   14   26 2    
    30   15   16 1    
    31   15   17 1    
    32   15   36 1    
    33   15   37 1    
    34   16   19 1    
    35   16   38 1    
    36   16   39 1    
    37   17   25 1    
    38   17   40 1    
    39   17   41 1    
    40   18   19 1    
    41   18   25 1    
    42   18   42 1    
    43   18   43 1    
    44   19   44 1    
    45   20   27 1    
    46   20   45 1    
    47   20   46 1    
    48   20   47 1    
    49   21   28 1    
    50   21   48 1    
    51   21   49 1    
    52   21   50 1    
    53   22   29 1    
    54   22   51 1    
    55   22   52 1    
    56   22   53 1    
    57   24   54 1    
@<TRIPOS>SUBSTRUCTURE
     1 UNK         1 GROUP             0       ****    0 ROOT    
@<TRIPOS>MOLECULE
ZINC19549513_44
54   57    1
SMALL
USER_CHARGES


@<TRIPOS>ATOM
      1 C1         -6.4046  -14.2460   33.6674 C.ar      1 UNK        -0.5355 
      2 C2         -6.1661  -13.1290   34.4933 C.ar      1 UNK        -0.0065 
      3 C3         -6.9101  -12.0940   36.8134 C.ar      1 UNK        -0.4676 
      4 C4         -9.5312   -6.9791   39.3990 C.ar      1 UNK        -0.1150 
      5 C5        -10.4743   -9.0985   38.6791 C.ar      1 UNK        -0.1150 
      6 C6         -7.3271  -15.2279   34.0827 C.ar      1 UNK         0.3847 
      7 C7         -6.8576  -13.0232   35.7184 C.ar      1 UNK         0.0033 
      8 C8         -9.6783   -8.3668   39.5807 C.ar      1 UNK        -0.1150 
      9 C9        -10.1258   -6.3130   38.2982 C.ar      1 UNK         0.0850 
     10 C10       -11.0602   -8.4677   37.5582 C.ar      1 UNK         0.0850 
     11 C11       -10.8767   -7.0789   37.3571 C.ar      1 UNK         0.0850 
     12 C12        -7.8157  -12.5932   37.7191 C.ar      1 UNK         0.0504 
     13 C13        -7.7539  -14.0868   36.0033 C.ar      1 UNK         0.6662 
     14 C14        -9.0547   -9.0282   40.7777 C.2       1 UNK         0.6150 
     15 C15        -8.2544  -12.3752   41.5742 C.3       1 UNK        -0.1200 
     16 C16        -7.8546  -12.9658   40.2092 C.3       1 UNK        -0.1200 
     17 C17        -7.7688  -10.9214   41.7196 C.3       1 UNK        -0.0500 
     18 C18        -7.7554  -10.6145   39.3057 C.3       1 UNK        -0.0500 
     19 C19        -8.2670  -12.0476   39.0400 C.3       1 UNK         0.0550 
     20 C20        -9.3172   -4.1793   39.0970 C.3       1 UNK         0.1100 
     21 C21       -11.9152  -10.5574   36.7169 C.3       1 UNK         0.1100 
     22 C22       -10.9454   -5.4202   35.5984 C.3       1 UNK         0.1100 
     23 N23        -8.0174  -15.1802   35.2417 N.ar      1 UNK        -0.7065 
     24 N24        -8.3118  -13.7891   37.2230 N.pl3     1 UNK        -0.5442 
     25 N25        -8.2757  -10.1255   40.5928 N.am      1 UNK        -0.1400 
     26 O26        -9.2690   -8.5442   41.8881 O.2       1 UNK        -0.5000 
     27 O27       -10.0161   -4.9466   38.1270 O.3       1 UNK        -0.2850 
     28 O28       -11.8143   -9.1446   36.6206 O.3       1 UNK        -0.2850 
     29 O29       -11.4957   -6.5629   36.2344 O.3       1 UNK        -0.2850 
     30 H30        -5.8889  -14.3538   32.7235 H         1 UNK         0.2045 
     31 H31        -5.4651  -12.3632   34.1976 H         1 UNK         0.1538 
     32 H32        -6.3370  -11.1815   36.8870 H         1 UNK         0.2277 
     33 H33        -8.9549   -6.4432   40.1379 H         1 UNK         0.1150 
     34 H34       -10.6244  -10.1489   38.8660 H         1 UNK         0.1150 
     35 H35        -7.5180  -16.0884   33.4571 H         1 UNK         0.0641 
     36 H36        -9.3396  -12.4072   41.6838 H         1 UNK         0.0600 
     37 H37        -7.8475  -12.9873   42.3800 H         1 UNK         0.0600 
     38 H38        -6.7732  -13.1102   40.1848 H         1 UNK         0.0600 
     39 H39        -8.2961  -13.9558   40.0916 H         1 UNK         0.0600 
     40 H40        -8.0894  -10.5318   42.6876 H         1 UNK         0.0600 
     41 H41        -6.6786  -10.8821   41.7294 H         1 UNK         0.0600 
     42 H42        -6.6653  -10.6131   39.3484 H         1 UNK         0.0600 
     43 H43        -8.0031   -9.9634   38.4682 H         1 UNK         0.0600 
     44 H44        -9.3566  -12.0132   39.0210 H         1 UNK         0.0600 
     45 H45        -9.3522   -3.1276   38.8139 H         1 UNK         0.0300 
     46 H46        -8.2671   -4.4689   39.1534 H         1 UNK         0.0300 
     47 H47        -9.7737   -4.2682   40.0840 H         1 UNK         0.0300 
     48 H48       -12.4827  -10.9344   35.8662 H         1 UNK         0.0300 
     49 H49       -12.4429  -10.8572   37.6229 H         1 UNK         0.0300 
     50 H50       -10.9331  -11.0325   36.6933 H         1 UNK         0.0300 
     51 H51       -11.2824   -5.3954   34.5624 H         1 UNK         0.0300 
     52 H52        -9.8547   -5.4403   35.5874 H         1 UNK         0.0300 
     53 H53       -11.2910   -4.5010   36.0717 H         1 UNK         0.0300 
     54 H54        -8.9850  -14.3746   37.6889 H         1 UNK         0.3906 
@<TRIPOS>BOND
     1    1    2 ar   
     2    1    6 ar   
     3    1   30 1    
     4    2    7 ar   
     5    2   31 1    
     6    3    7 ar   
     7    3   12 ar   
     8    3   32 1    
     9    4    8 ar   
    10    4    9 ar   
    11    4   33 1    
    12    5    8 ar   
    13    5   10 ar   
    14    5   34 1    
    15    6   23 ar   
    16    6   35 1    
    17    7   13 ar   
    18    8   14 1    
    19    9   11 ar   
    20    9   27 1    
    21   10   11 ar   
    22   10   28 1    
    23   11   29 1    
    24   12   19 1    
    25   12   24 ar   
    26   13   23 ar   
    27   13   24 ar   
    28   14   25 am   BACKBONE|DICT|INTERRES
    29   14   26 2    
    30   15   16 1    
    31   15   17 1    
    32   15   36 1    
    33   15   37 1    
    34   16   19 1    
    35   16   38 1    
    36   16   39 1    
    37   17   25 1    
    38   17   40 1    
    39   17   41 1    
    40   18   19 1    
    41   18   25 1    
    42   18   42 1    
    43   18   43 1    
    44   19   44 1    
    45   20   27 1    
    46   20   45 1    
    47   20   46 1    
    48   20   47 1    
    49   21   28 1    
    50   21   48 1    
    51   21   49 1    
    52   21   50 1    
    53   22   29 1    
    54   22   51 1    
    55   22   52 1    
    56   22   53 1    
    57   24   54 1    
@<TRIPOS>SUBSTRUCTURE
     1 UNK         1 GROUP             0       ****    0 ROOT    
@<TRIPOS>MOLECULE
ZINC19549560_159
54   57    1
SMALL
USER_CHARGES


@<TRIPOS>ATOM
      1 C1         -3.1788  -10.2457   33.8347 C.ar      1 UNK        -0.1818 
      2 C2         -3.7512   -9.8203   32.6182 C.ar      1 UNK        -0.1533 
      3 C3         -5.5629   -8.7288   33.8375 C.ar      1 UNK        -0.4445 
      4 C4         -5.6015   -8.8365   36.2792 C.ar      1 UNK        -0.7531 
      5 C5         -7.7221   -5.9707   38.6321 C.ar      1 UNK        -0.1150 
      6 C6         -6.6305   -4.0111   39.5706 C.ar      1 UNK        -0.1150 
      7 C7         -3.2724  -10.2997   36.2949 C.ar      1 UNK         0.3967 
      8 C8         -3.8056   -9.9088   35.0528 C.ar      1 UNK        -0.2505 
      9 C9         -4.9974   -9.1547   35.0539 C.ar      1 UNK         0.6486 
     10 C10        -6.9403   -5.3802   39.6442 C.ar      1 UNK        -0.1150 
     11 C11        -8.1440   -5.2267   37.5041 C.ar      1 UNK         0.0850 
     12 C12        -7.0349   -3.2433   38.4533 C.ar      1 UNK         0.0850 
     13 C13        -7.7617   -3.8567   37.4043 C.ar      1 UNK         0.0850 
     14 C14        -4.9387   -9.0629   32.6216 C.ar      1 UNK         0.3122 
     15 C15        -4.9974   -9.2900   37.4649 C.ar      1 UNK         0.4151 
     16 C16        -6.4788   -6.1885   40.8213 C.2       1 UNK         0.6150 
     17 C17        -5.3761   -8.2640   41.6000 C.3       1 UNK        -0.0500 
     18 C18        -5.0252   -7.5886   39.3163 C.3       1 UNK        -0.0500 
     19 C19        -5.9146   -9.6134   41.0916 C.3       1 UNK         0.1400 
     20 C20        -5.5971   -8.9263   38.8172 C.3       1 UNK         0.2850 
     21 C21        -9.5458   -7.0443   36.7524 C.3       1 UNK         0.1100 
     22 C22        -6.1038   -1.2276   39.3852 C.3       1 UNK         0.1100 
     23 C23        -8.1802   -3.5858   35.0446 C.3       1 UNK         0.1100 
     24 N24        -3.8442   -9.9870   37.4721 N.ar      1 UNK        -0.6841 
     25 N25        -5.6742   -7.2510   40.5869 N.am      1 UNK        -0.1400 
     26 O26        -6.8594   -5.8720   41.9461 O.2       1 UNK        -0.5000 
     27 O27        -5.3461   -9.9163   39.8188 O.3       1 UNK        -0.4000 
     28 O28        -8.9241   -5.7892   36.5129 O.3       1 UNK        -0.2850 
     29 O29        -6.7422   -1.9019   38.3114 O.3       1 UNK        -0.2850 
     30 O30        -8.0927   -3.0309   36.3481 O.3       1 UNK        -0.2850 
     31 F31        -5.4824   -8.6544   31.4520 F         1 UNK        -0.2200 
     32 H32        -2.2663  -10.8238   33.8295 H         1 UNK         0.1598 
     33 H33        -3.2834  -10.0696   31.6758 H         1 UNK         0.1414 
     34 H34        -6.4701   -8.1471   33.8218 H         1 UNK         0.2009 
     35 H35        -6.5057   -8.2505   36.3110 H         1 UNK         0.2410 
     36 H36        -7.9937   -7.0072   38.7473 H         1 UNK         0.1150 
     37 H37        -6.0658   -3.5748   40.3808 H         1 UNK         0.1150 
     38 H38        -2.3581  -10.8723   36.3492 H         1 UNK         0.0566 
     39 H39        -5.8204   -8.0327   42.5697 H         1 UNK         0.0600 
     40 H40        -4.2988   -8.3192   41.7615 H         1 UNK         0.0600 
     41 H41        -3.9493   -7.6866   39.4694 H         1 UNK         0.0600 
     42 H42        -5.1371   -6.8196   38.5525 H         1 UNK         0.0600 
     43 H43        -5.6583  -10.4094   41.7912 H         1 UNK         0.0300 
     44 H44        -7.0031   -9.5941   41.0175 H         1 UNK         0.0300 
     45 H45        -6.6769   -8.8520   38.6846 H         1 UNK         0.0300 
     46 H46       -10.2250   -7.2693   35.9303 H         1 UNK         0.0300 
     47 H47       -10.1355   -7.0309   37.6703 H         1 UNK         0.0300 
     48 H48        -8.8156   -7.8522   36.8027 H         1 UNK         0.0300 
     49 H49        -6.0013   -0.1718   39.1350 H         1 UNK         0.0300 
     50 H50        -5.1028   -1.6218   39.5648 H         1 UNK         0.0300 
     51 H51        -6.6901   -1.2921   40.3030 H         1 UNK         0.0300 
     52 H52        -7.9948   -2.8007   34.3117 H         1 UNK         0.0300 
     53 H53        -9.1784   -3.9789   34.8512 H         1 UNK         0.0300 
     54 H54        -7.4404   -4.3703   34.8784 H         1 UNK         0.0300 
@<TRIPOS>BOND
     1    1    2 ar   
     2    1    8 ar   
     3    1   32 1    
     4    2   14 ar   
     5    2   33 1    
     6    3    9 ar   
     7    3   14 ar   
     8    3   34 1    
     9    4    9 ar   
    10    4   15 ar   
    11    4   35 1    
    12    5   10 ar   
    13    5   11 ar   
    14    5   36 1    
    15    6   10 ar   
    16    6   12 ar   
    17    6   37 1    
    18    7    8 ar   
    19    7   24 ar   
    20    7   38 1    
    21    8    9 ar   
    22   10   16 1    
    23   11   13 ar   
    24   11   28 1    
    25   12   13 ar   
    26   12   29 1    
    27   13   30 1    
    28   14   31 1    
    29   15   20 1    
    30   15   24 ar   
    31   16   25 am   BACKBONE|DICT|INTERRES
    32   16   26 2    
    33   17   19 1    
    34   17   25 1    
    35   17   39 1    
    36   17   40 1    
    37   18   20 1    
    38   18   25 1    
    39   18   41 1    
    40   18   42 1    
    41   19   27 1    
    42   19   43 1    
    43   19   44 1    
    44   20   27 1    
    45   20   45 1    
    46   21   28 1    
    47   21   46 1    
    48   21   47 1    
    49   21   48 1    
    50   22   29 1    
    51   22   49 1    
    52   22   50 1    
    53   22   51 1    
    54   23   30 1    
    55   23   52 1    
    56   23   53 1    
    57   23   54 1    
@<TRIPOS>SUBSTRUCTURE
     1 UNK         1 GROUP             0       ****    0 ROOT    
@<TRIPOS>MOLECULE
ZINC19549564_176
54   57    1
SMALL
USER_CHARGES


@<TRIPOS>ATOM
      1 C1         -3.1649  -12.5209   34.4455 C.ar      1 UNK        -0.0460 
      2 C2         -3.7303  -11.8640   33.3339 C.ar      1 UNK        -0.1533 
      3 C3         -3.5291  -12.1389   35.7526 C.ar      1 UNK        -0.4445 
      4 C4         -4.6616  -10.8232   33.5256 C.ar      1 UNK        -0.1818 
      5 C5         -4.8331  -10.6987   37.2353 C.ar      1 UNK        -0.7531 
      6 C6         -7.7672   -5.7776   38.5650 C.ar      1 UNK        -0.1150 
      7 C7         -6.5461   -3.9938   39.6748 C.ar      1 UNK        -0.1150 
      8 C8         -5.9481   -9.4115   35.0791 C.ar      1 UNK         0.3967 
      9 C9         -4.4585  -11.0993   35.9472 C.ar      1 UNK         0.6486 
     10 C10        -5.0239  -10.4431   34.8348 C.ar      1 UNK        -0.2505 
     11 C11        -6.9389   -5.3432   39.6200 C.ar      1 UNK        -0.1150 
     12 C12        -8.1587   -4.8954   37.5274 C.ar      1 UNK         0.0850 
     13 C13        -6.9251   -3.0886   38.6566 C.ar      1 UNK         0.0850 
     14 C14        -7.7102   -3.5428   37.5707 C.ar      1 UNK         0.0850 
     15 C15        -5.7706   -9.6613   37.3716 C.ar      1 UNK         0.4151 
     16 C16        -6.5456   -6.2685   40.7371 C.2       1 UNK         0.6150 
     17 C17        -5.6449   -8.4551   41.4589 C.3       1 UNK        -0.0500 
     18 C18        -5.4444   -7.8798   39.1300 C.3       1 UNK        -0.0500 
     19 C19        -6.3842   -9.7426   41.0588 C.3       1 UNK         0.1400 
     20 C20        -6.1976   -9.1680   38.7457 C.3       1 UNK         0.2850 
     21 C21        -9.3463   -6.6684   36.3933 C.3       1 UNK         0.1100 
     22 C22        -5.8217   -1.2510   39.7542 C.3       1 UNK         0.1100 
     23 C23        -8.1600   -2.9880   35.2673 C.3       1 UNK         0.1100 
     24 N24        -6.3151   -9.0239   36.3167 N.ar      1 UNK        -0.6841 
     25 N25        -5.9218   -7.4350   40.4440 N.am      1 UNK        -0.1400 
     26 O26        -6.7909   -5.9254   41.8923 O.2       1 UNK        -0.5000 
     27 O27        -5.9628  -10.1497   39.7599 O.3       1 UNK        -0.4000 
     28 O28        -8.9874   -5.2981   36.4983 O.3       1 UNK        -0.2850 
     29 O29        -6.5564   -1.7581   38.6508 O.3       1 UNK        -0.2850 
     30 O30        -8.0186   -2.5877   36.6215 O.3       1 UNK        -0.2850 
     31 H31        -2.4513  -13.3184   34.2943 H         1 UNK         0.1382 
     32 H32        -3.4479  -12.1604   32.3324 H         1 UNK         0.1414 
     33 H33        -3.0969  -12.6439   36.6023 H         1 UNK         0.2009 
     34 H34        -5.0933  -10.3217   32.6717 H         1 UNK         0.1598 
     35 H35        -4.4269  -11.1759   38.1138 H         1 UNK         0.2410 
     36 H36        -8.1052   -6.8010   38.5786 H         1 UNK         0.1150 
     37 H37        -5.9484   -3.6756   40.5157 H         1 UNK         0.1150 
     38 H38        -6.4074   -8.8779   34.2601 H         1 UNK         0.0566 
     39 H39        -5.9568   -8.1542   42.4606 H         1 UNK         0.0600 
     40 H40        -4.5705   -8.6340   41.5170 H         1 UNK         0.0600 
     41 H41        -4.3744   -8.0842   39.1824 H         1 UNK         0.0600 
     42 H42        -5.5513   -7.1288   38.3487 H         1 UNK         0.0600 
     43 H43        -6.1636  -10.5407   41.7681 H         1 UNK         0.0300 
     44 H44        -7.4651   -9.5927   41.0733 H         1 UNK         0.0300 
     45 H45        -7.2711   -8.9750   38.7032 H         1 UNK         0.0300 
     46 H46        -9.9415   -6.8148   35.4922 H         1 UNK         0.0300 
     47 H47        -9.9511   -6.9904   37.2417 H         1 UNK         0.0300 
     48 H48        -8.4663   -7.3059   36.3105 H         1 UNK         0.0300 
     49 H49        -5.6469   -0.1852   39.6088 H         1 UNK         0.0300 
     50 H50        -4.8483   -1.7352   39.8414 H         1 UNK         0.0300 
     51 H51        -6.3717   -1.3696   40.6887 H         1 UNK         0.0300 
     52 H52        -7.9473   -2.1363   34.6218 H         1 UNK         0.0300 
     53 H53        -9.1809   -3.3068   35.0564 H         1 UNK         0.0300 
     54 H54        -7.4657   -3.7851   34.9969 H         1 UNK         0.0300 
@<TRIPOS>BOND
     1    1    2 ar   
     2    1    3 ar   
     3    1   31 1    
     4    2    4 ar   
     5    2   32 1    
     6    3    9 ar   
     7    3   33 1    
     8    4   10 ar   
     9    4   34 1    
    10    5    9 ar   
    11    5   15 ar   
    12    5   35 1    
    13    6   11 ar   
    14    6   12 ar   
    15    6   36 1    
    16    7   11 ar   
    17    7   13 ar   
    18    7   37 1    
    19    8   10 ar   
    20    8   24 ar   
    21    8   38 1    
    22    9   10 ar   
    23   11   16 1    
    24   12   14 ar   
    25   12   28 1    
    26   13   14 ar   
    27   13   29 1    
    28   14   30 1    
    29   15   20 1    
    30   15   24 ar   
    31   16   25 am   BACKBONE|DICT|INTERRES
    32   16   26 2    
    33   17   19 1    
    34   17   25 1    
    35   17   39 1    
    36   17   40 1    
    37   18   20 1    
    38   18   25 1    
    39   18   41 1    
    40   18   42 1    
    41   19   27 1    
    42   19   43 1    
    43   19   44 1    
    44   20   27 1    
    45   20   45 1    
    46   21   28 1    
    47   21   46 1    
    48   21   47 1    
    49   21   48 1    
    50   22   29 1    
    51   22   49 1    
    52   22   50 1    
    53   22   51 1    
    54   23   30 1    
    55   23   52 1    
    56   23   53 1    
    57   23   54 1    
@<TRIPOS>SUBSTRUCTURE
     1 UNK         1 GROUP             0       ****    0 ROOT    
@<TRIPOS>MOLECULE
ZINC19550335_131
48   51    1
SMALL
USER_CHARGES


@<TRIPOS>ATOM
      1 C1         -9.2524  -23.7335   37.8672 C.ar      1 UNK        -0.0460 
      2 C2         -8.9188  -23.8238   36.5006 C.ar      1 UNK        -0.1533 
      3 C3        -10.0831  -22.6900   38.3244 C.ar      1 UNK        -0.4445 
      4 C4         -9.4154  -22.8719   35.5870 C.ar      1 UNK        -0.1818 
      5 C5        -11.4082  -20.6926   37.8439 C.ar      1 UNK        -0.7531 
      6 C6        -15.4166  -13.6842   37.4561 C.ar      1 UNK        -0.6890 
      7 C7        -10.7717  -20.8587   35.1761 C.ar      1 UNK         0.3967 
      8 C8        -10.5811  -21.7376   37.4138 C.ar      1 UNK         0.6486 
      9 C9        -10.2473  -21.8299   36.0476 C.ar      1 UNK        -0.2505 
     10 C10       -14.1948  -14.1515   37.9683 C.ar      1 UNK         0.5490 
     11 C11       -11.8876  -19.7756   36.8910 C.ar      1 UNK         0.4151 
     12 C12       -16.0512  -12.6595   38.1700 C.ar      1 UNK         0.7640 
     13 C13       -14.3445  -12.6493   39.6747 C.ar      1 UNK         0.9524 
     14 C14       -13.4213  -15.2031   37.2087 C.2       1 UNK         0.6150 
     15 C15       -13.1181  -16.5440   39.3076 C.3       1 UNK        -0.0500 
     16 C16       -12.0677  -17.2645   37.2049 C.3       1 UNK        -0.0500 
     17 C17       -12.8577  -18.0281   39.6337 C.3       1 UNK         0.1400 
     18 C18       -12.7990  -18.6220   37.2964 C.3       1 UNK         0.2850 
     19 C19       -17.8863  -12.5452   36.6432 C.3       1 UNK         0.1100 
     20 C20       -14.4170  -11.1222   41.5008 C.3       1 UNK         0.1100 
     21 N21       -11.5719  -19.8543   35.5835 N.ar      1 UNK        -0.6841 
     22 N22       -13.6610  -13.6104   39.0804 N.ar      1 UNK        -0.8390 
     23 N23       -15.5123  -12.1540   39.2843 N.ar      1 UNK        -0.8390 
     24 N24       -12.8597  -16.2341   37.8894 N.am      1 UNK        -0.1400 
     25 O25       -13.3634  -15.1144   35.9803 O.2       1 UNK        -0.5000 
     26 O26       -13.3967  -18.8270   38.5869 O.3       1 UNK        -0.4000 
     27 O27       -17.2498  -12.0811   37.8231 O.3       1 UNK        -0.3000 
     28 O28       -13.7598  -12.1680   40.7934 O.3       1 UNK        -0.3104 
     29 H29        -8.8710  -24.4667   38.5640 H         1 UNK         0.1382 
     30 H30        -8.2814  -24.6261   36.1534 H         1 UNK         0.1414 
     31 H31       -10.3388  -22.6244   39.3703 H         1 UNK         0.2009 
     32 H32        -9.1601  -22.9435   34.5399 H         1 UNK         0.1598 
     33 H33       -11.6973  -20.6013   38.8782 H         1 UNK         0.2410 
     34 H34       -15.8072  -14.1042   36.5414 H         1 UNK         0.1970 
     35 H35       -10.5458  -20.8857   34.1203 H         1 UNK         0.0566 
     36 H36       -14.1617  -16.3306   39.5447 H         1 UNK         0.0600 
     37 H37       -12.5085  -15.9061   39.9495 H         1 UNK         0.0600 
     38 H38       -11.0912  -17.3254   37.6868 H         1 UNK         0.0600 
     39 H39       -11.8549  -17.0330   36.1597 H         1 UNK         0.0600 
     40 H40       -11.7918  -18.2303   39.7523 H         1 UNK         0.0300 
     41 H41       -13.3328  -18.2974   40.5773 H         1 UNK         0.0300 
     42 H42       -13.6293  -18.6129   36.5884 H         1 UNK         0.0300 
     43 H43       -18.8174  -11.9983   36.4965 H         1 UNK         0.0300 
     44 H44       -18.1324  -13.6054   36.7151 H         1 UNK         0.0300 
     45 H45       -17.2619  -12.3784   35.7645 H         1 UNK         0.0300 
     46 H46       -14.5270  -10.2315   40.8804 H         1 UNK         0.0300 
     47 H47       -13.8254  -10.8488   42.3737 H         1 UNK         0.0300 
     48 H48       -15.4018  -11.4352   41.8512 H         1 UNK         0.0300 
@<TRIPOS>BOND
     1    1    2 ar   
     2    1    3 ar   
     3    1   29 1    
     4    2    4 ar   
     5    2   30 1    
     6    3    8 ar   
     7    3   31 1    
     8    4    9 ar   
     9    4   32 1    
    10    5    8 ar   
    11    5   11 ar   
    12    5   33 1    
    13    6   10 ar   
    14    6   12 ar   
    15    6   34 1    
    16    7    9 ar   
    17    7   21 ar   
    18    7   35 1    
    19    8    9 ar   
    20   10   14 1    
    21   10   22 ar   
    22   11   18 1    
    23   11   21 ar   
    24   12   23 ar   
    25   12   27 1    
    26   13   22 ar   
    27   13   23 ar   
    28   13   28 1    
    29   14   24 am   BACKBONE|DICT|INTERRES
    30   14   25 2    
    31   15   17 1    
    32   15   24 1    
    33   15   36 1    
    34   15   37 1    
    35   16   18 1    
    36   16   24 1    
    37   16   38 1    
    38   16   39 1    
    39   17   26 1    
    40   17   40 1    
    41   17   41 1    
    42   18   26 1    
    43   18   42 1    
    44   19   27 1    
    45   19   43 1    
    46   19   44 1    
    47   19   45 1    
    48   20   28 1    
    49   20   46 1    
    50   20   47 1    
    51   20   48 1    
@<TRIPOS>SUBSTRUCTURE
     1 UNK         1 GROUP             0       ****    0 ROOT    
@<TRIPOS>MOLECULE
ZINC19559809_227
49   52    1
SMALL
USER_CHARGES


@<TRIPOS>ATOM
      1 C1         -8.4916  -19.7142   34.1843 C.ar      1 UNK        -0.0460 
      2 C2         -9.6189  -20.5286   33.9542 C.ar      1 UNK        -0.1533 
      3 C3         -8.5307  -18.7178   35.1810 C.ar      1 UNK        -0.4445 
      4 C4        -10.7889  -20.3493   34.7197 C.ar      1 UNK        -0.1818 
      5 C5        -14.5837  -13.3734   38.1265 C.ar      1 UNK        -0.1150 
      6 C6        -15.1197  -12.5814   37.0977 C.ar      1 UNK        -0.1150 
      7 C7         -9.7611  -17.5505   36.9432 C.ar      1 UNK        -0.7531 
      8 C8        -13.3425  -11.4474   38.9311 C.ar      1 UNK        -0.1150 
      9 C9        -11.9672  -19.1324   36.5054 C.ar      1 UNK         0.3967 
     10 C10        -9.6985  -18.5360   35.9472 C.ar      1 UNK         0.6486 
     11 C11       -10.8248  -19.3513   35.7157 C.ar      1 UNK        -0.2505 
     12 C12       -13.6684  -12.8143   39.0394 C.ar      1 UNK        -0.1150 
     13 C13       -14.7811  -11.2202   36.9625 C.ar      1 UNK         0.0850 
     14 C14       -13.8773  -10.6308   37.8996 C.ar      1 UNK         0.0850 
     15 C15       -10.9514  -17.4118   37.6765 C.ar      1 UNK         0.4151 
     16 C16       -13.0878  -13.6252   40.1654 C.2       1 UNK         0.6150 
     17 C17       -11.3537  -16.8930   40.1670 C.3       1 UNK        -0.1200 
     18 C18       -11.9264  -15.6769   40.9036 C.3       1 UNK        -0.0500 
     19 C19       -12.1836  -15.3269   38.5394 C.3       1 UNK        -0.0500 
     20 C20       -11.0765  -16.3574   38.7676 C.3       1 UNK         0.0550 
     21 C21       -15.2201   -9.2066   35.6652 C.3       1 UNK         0.1100 
     22 C22       -12.6899   -8.7077   38.7611 C.3       1 UNK         0.1100 
     23 N23       -12.0330  -18.1866   37.4627 N.ar      1 UNK        -0.6841 
     24 N24       -12.4949  -14.8044   39.8725 N.am      1 UNK        -0.1400 
     25 O25       -13.1327  -13.1797   41.3115 O.2       1 UNK        -0.5000 
     26 O26       -15.3975  -10.5948   35.8947 O.3       1 UNK        -0.2850 
     27 O27       -13.5391   -9.2965   37.7861 O.3       1 UNK        -0.2850 
     28 H28        -7.5966  -19.8547   33.5951 H         1 UNK         0.1382 
     29 H29        -9.5852  -21.2917   33.1883 H         1 UNK         0.1414 
     30 H30        -7.6660  -18.0967   35.3536 H         1 UNK         0.2009 
     31 H31       -11.6519  -20.9742   34.5419 H         1 UNK         0.1598 
     32 H32       -14.8871  -14.4067   38.2123 H         1 UNK         0.1150 
     33 H33       -15.8147  -13.0215   36.3976 H         1 UNK         0.1150 
     34 H34        -8.9124  -16.9152   37.1392 H         1 UNK         0.2410 
     35 H35       -12.6626  -11.0485   39.6682 H         1 UNK         0.1150 
     36 H36       -12.8562  -19.7300   36.3677 H         1 UNK         0.0566 
     37 H37       -10.4696  -17.3169   40.6433 H         1 UNK         0.0600 
     38 H38       -12.1141  -17.6743   40.1231 H         1 UNK         0.0600 
     39 H39       -12.6781  -15.9680   41.6392 H         1 UNK         0.0600 
     40 H40       -11.1359  -15.1390   41.4299 H         1 UNK         0.0600 
     41 H41       -11.8705  -14.5575   37.8322 H         1 UNK         0.0600 
     42 H42       -13.0759  -15.8116   38.1423 H         1 UNK         0.0600 
     43 H43       -10.1332  -15.8111   38.8151 H         1 UNK         0.0600 
     44 H44       -15.8228   -8.9094   34.8073 H         1 UNK         0.0300 
     45 H45       -14.1823   -8.9697   35.4283 H         1 UNK         0.0300 
     46 H46       -15.5545   -8.6126   36.5165 H         1 UNK         0.0300 
     47 H47       -11.7005   -9.1669   38.7589 H         1 UNK         0.0300 
     48 H48       -13.1213   -8.7747   39.7609 H         1 UNK         0.0300 
     49 H49       -12.5602   -7.6503   38.5308 H         1 UNK         0.0300 
@<TRIPOS>BOND
     1    1    2 ar   
     2    1    3 ar   
     3    1   28 1    
     4    2    4 ar   
     5    2   29 1    
     6    3   10 ar   
     7    3   30 1    
     8    4   11 ar   
     9    4   31 1    
    10    5    6 ar   
    11    5   12 ar   
    12    5   32 1    
    13    6   13 ar   
    14    6   33 1    
    15    7   10 ar   
    16    7   15 ar   
    17    7   34 1    
    18    8   12 ar   
    19    8   14 ar   
    20    8   35 1    
    21    9   11 ar   
    22    9   23 ar   
    23    9   36 1    
    24   10   11 ar   
    25   12   16 1    
    26   13   14 ar   
    27   13   26 1    
    28   14   27 1    
    29   15   20 1    
    30   15   23 ar   
    31   16   24 am   BACKBONE|DICT|INTERRES
    32   16   25 2    
    33   17   18 1    
    34   17   20 1    
    35   17   37 1    
    36   17   38 1    
    37   18   24 1    
    38   18   39 1    
    39   18   40 1    
    40   19   20 1    
    41   19   24 1    
    42   19   41 1    
    43   19   42 1    
    44   20   43 1    
    45   21   26 1    
    46   21   44 1    
    47   21   45 1    
    48   21   46 1    
    49   22   27 1    
    50   22   47 1    
    51   22   48 1    
    52   22   49 1    
@<TRIPOS>SUBSTRUCTURE
     1 UNK         1 GROUP             0       ****    0 ROOT    
@<TRIPOS>MOLECULE
ZINC19559809_227
49   52    1
SMALL
USER_CHARGES


@<TRIPOS>ATOM
      1 C1         -8.4916  -19.7142   34.1843 C.ar      1 UNK        -0.0460 
      2 C2         -9.6189  -20.5286   33.9542 C.ar      1 UNK        -0.1533 
      3 C3         -8.5307  -18.7178   35.1810 C.ar      1 UNK        -0.4445 
      4 C4        -10.7889  -20.3493   34.7197 C.ar      1 UNK        -0.1818 
      5 C5        -14.5837  -13.3734   38.1265 C.ar      1 UNK        -0.1150 
      6 C6        -15.1197  -12.5814   37.0977 C.ar      1 UNK        -0.1150 
      7 C7         -9.7611  -17.5505   36.9432 C.ar      1 UNK        -0.7531 
      8 C8        -13.3425  -11.4474   38.9311 C.ar      1 UNK        -0.1150 
      9 C9        -11.9672  -19.1324   36.5054 C.ar      1 UNK         0.3967 
     10 C10        -9.6985  -18.5360   35.9472 C.ar      1 UNK         0.6486 
     11 C11       -10.8248  -19.3513   35.7157 C.ar      1 UNK        -0.2505 
     12 C12       -13.6684  -12.8143   39.0394 C.ar      1 UNK        -0.1150 
     13 C13       -14.7811  -11.2202   36.9625 C.ar      1 UNK         0.0850 
     14 C14       -13.8773  -10.6308   37.8996 C.ar      1 UNK         0.0850 
     15 C15       -10.9514  -17.4118   37.6765 C.ar      1 UNK         0.4151 
     16 C16       -13.0878  -13.6252   40.1654 C.2       1 UNK         0.6150 
     17 C17       -11.3537  -16.8930   40.1670 C.3       1 UNK        -0.1200 
     18 C18       -11.9264  -15.6769   40.9036 C.3       1 UNK        -0.0500 
     19 C19       -12.1836  -15.3269   38.5394 C.3       1 UNK        -0.0500 
     20 C20       -11.0765  -16.3574   38.7676 C.3       1 UNK         0.0550 
     21 C21       -15.2201   -9.2066   35.6652 C.3       1 UNK         0.1100 
     22 C22       -12.6899   -8.7077   38.7611 C.3       1 UNK         0.1100 
     23 N23       -12.0330  -18.1866   37.4627 N.ar      1 UNK        -0.6841 
     24 N24       -12.4949  -14.8044   39.8725 N.am      1 UNK        -0.1400 
     25 O25       -13.1327  -13.1797   41.3115 O.2       1 UNK        -0.5000 
     26 O26       -15.3975  -10.5948   35.8947 O.3       1 UNK        -0.2850 
     27 O27       -13.5391   -9.2965   37.7861 O.3       1 UNK        -0.2850 
     28 H28        -7.5966  -19.8547   33.5951 H         1 UNK         0.1382 
     29 H29        -9.5852  -21.2917   33.1883 H         1 UNK         0.1414 
     30 H30        -7.6660  -18.0967   35.3536 H         1 UNK         0.2009 
     31 H31       -11.6519  -20.9742   34.5419 H         1 UNK         0.1598 
     32 H32       -14.8871  -14.4067   38.2123 H         1 UNK         0.1150 
     33 H33       -15.8147  -13.0215   36.3976 H         1 UNK         0.1150 
     34 H34        -8.9124  -16.9152   37.1392 H         1 UNK         0.2410 
     35 H35       -12.6626  -11.0485   39.6682 H         1 UNK         0.1150 
     36 H36       -12.8562  -19.7300   36.3677 H         1 UNK         0.0566 
     37 H37       -10.4696  -17.3169   40.6433 H         1 UNK         0.0600 
     38 H38       -12.1141  -17.6743   40.1231 H         1 UNK         0.0600 
     39 H39       -12.6781  -15.9680   41.6392 H         1 UNK         0.0600 
     40 H40       -11.1359  -15.1390   41.4299 H         1 UNK         0.0600 
     41 H41       -11.8705  -14.5575   37.8322 H         1 UNK         0.0600 
     42 H42       -13.0759  -15.8116   38.1423 H         1 UNK         0.0600 
     43 H43       -10.1332  -15.8111   38.8151 H         1 UNK         0.0600 
     44 H44       -15.8228   -8.9094   34.8073 H         1 UNK         0.0300 
     45 H45       -14.1823   -8.9697   35.4283 H         1 UNK         0.0300 
     46 H46       -15.5545   -8.6126   36.5165 H         1 UNK         0.0300 
     47 H47       -11.7005   -9.1669   38.7589 H         1 UNK         0.0300 
     48 H48       -13.1213   -8.7747   39.7609 H         1 UNK         0.0300 
     49 H49       -12.5602   -7.6503   38.5308 H         1 UNK         0.0300 
@<TRIPOS>BOND
     1    1    2 ar   
     2    1    3 ar   
     3    1   28 1    
     4    2    4 ar   
     5    2   29 1    
     6    3   10 ar   
     7    3   30 1    
     8    4   11 ar   
     9    4   31 1    
    10    5    6 ar   
    11    5   12 ar   
    12    5   32 1    
    13    6   13 ar   
    14    6   33 1    
    15    7   10 ar   
    16    7   15 ar   
    17    7   34 1    
    18    8   12 ar   
    19    8   14 ar   
    20    8   35 1    
    21    9   11 ar   
    22    9   23 ar   
    23    9   36 1    
    24   10   11 ar   
    25   12   16 1    
    26   13   14 ar   
    27   13   26 1    
    28   14   27 1    
    29   15   20 1    
    30   15   23 ar   
    31   16   24 am   BACKBONE|DICT|INTERRES
    32   16   25 2    
    33   17   18 1    
    34   17   20 1    
    35   17   37 1    
    36   17   38 1    
    37   18   24 1    
    38   18   39 1    
    39   18   40 1    
    40   19   20 1    
    41   19   24 1    
    42   19   41 1    
    43   19   42 1    
    44   20   43 1    
    45   21   26 1    
    46   21   44 1    
    47   21   45 1    
    48   21   46 1    
    49   22   27 1    
    50   22   47 1    
    51   22   48 1    
    52   22   49 1    
@<TRIPOS>SUBSTRUCTURE
     1 UNK         1 GROUP             0       ****    0 ROOT    
@<TRIPOS>MOLECULE
ZINC19559875_215
50   53    1
SMALL
USER_CHARGES


@<TRIPOS>ATOM
      1 C1         -9.4681  -22.2848   35.4350 C.ar      1 UNK        -0.1818 
      2 C2        -15.0029  -13.4024   37.3742 C.ar      1 UNK        -0.1150 
      3 C3        -15.9190  -12.3727   37.6549 C.ar      1 UNK        -0.1150 
      4 C4         -9.0024  -23.2773   36.3216 C.ar      1 UNK        -0.1533 
      5 C5        -10.2821  -22.2711   38.1407 C.ar      1 UNK        -0.4445 
      6 C6        -11.6186  -20.2709   37.7009 C.ar      1 UNK        -0.7531 
      7 C7        -13.4077  -12.3762   38.8857 C.ar      1 UNK        -0.1150 
      8 C8        -10.8378  -20.2724   35.0665 C.ar      1 UNK         0.3967 
      9 C9        -10.3434  -21.2852   35.9090 C.ar      1 UNK        -0.2505 
     10 C10       -10.7499  -21.2780   37.2598 C.ar      1 UNK         0.6486 
     11 C11       -13.7452  -13.4234   38.0082 C.ar      1 UNK        -0.1150 
     12 C12       -15.5989  -11.3297   38.5635 C.ar      1 UNK         0.0850 
     13 C13       -14.3080  -11.3312   39.1742 C.ar      1 UNK         0.0850 
     14 C14        -9.4092  -23.2691   37.6700 C.ar      1 UNK         0.3122 
     15 C15       -12.0629  -19.3097   36.7768 C.ar      1 UNK         0.4151 
     16 C16       -12.7411  -14.5044   37.7190 C.2       1 UNK         0.6150 
     17 C17       -14.3348  -16.2147   38.5985 C.3       1 UNK        -0.0500 
     18 C18       -12.2152  -16.8850   37.4846 C.3       1 UNK        -0.0500 
     19 C19       -14.1302  -17.5821   39.2688 C.3       1 UNK         0.1400 
     20 C20       -12.9952  -18.1878   37.2124 C.3       1 UNK         0.2850 
     21 C21       -17.7792  -10.3318   38.2518 C.3       1 UNK         0.1100 
     22 C22       -14.4418   -9.1253   40.1767 C.3       1 UNK         0.1100 
     23 N23       -11.6746  -19.3045   35.4868 N.ar      1 UNK        -0.6841 
     24 N24       -13.1157  -15.7939   37.8892 N.am      1 UNK        -0.1400 
     25 O25       -11.6140  -14.1849   37.3450 O.2       1 UNK        -0.5000 
     26 O26       -13.8080  -18.5913   38.3205 O.3       1 UNK        -0.4000 
     27 O27       -16.5037  -10.3345   38.8771 O.3       1 UNK        -0.2850 
     28 O28       -13.8220  -10.3969   40.0679 O.3       1 UNK        -0.2850 
     29 F29        -8.9591  -24.2238   38.5167 F         1 UNK        -0.2200 
     30 H30        -9.1546  -22.2939   34.4016 H         1 UNK         0.1598 
     31 H31       -15.2695  -14.1744   36.6666 H         1 UNK         0.1150 
     32 H32       -16.8725  -12.4119   37.1525 H         1 UNK         0.1150 
     33 H33        -8.3313  -24.0506   35.9744 H         1 UNK         0.1414 
     34 H34       -10.5857  -22.2771   39.1747 H         1 UNK         0.2009 
     35 H35       -11.9624  -20.2287   38.7231 H         1 UNK         0.2410 
     36 H36       -12.4319  -12.3693   39.3509 H         1 UNK         0.1150 
     37 H37       -10.5552  -20.2346   34.0248 H         1 UNK         0.0566 
     38 H38       -15.1677  -16.2653   37.8967 H         1 UNK         0.0600 
     39 H39       -14.6082  -15.4949   39.3720 H         1 UNK         0.0600 
     40 H40       -11.4677  -17.0453   38.2624 H         1 UNK         0.0600 
     41 H41       -11.6675  -16.6155   36.5788 H         1 UNK         0.0600 
     42 H42       -13.3271  -17.5201   40.0049 H         1 UNK         0.0300 
     43 H43       -15.0261  -17.8842   39.8118 H         1 UNK         0.0300 
     44 H44       -13.6834  -17.9985   36.3864 H         1 UNK         0.0300 
     45 H45       -18.3523   -9.4776   38.6121 H         1 UNK         0.0300 
     46 H46       -18.3459  -11.2318   38.4941 H         1 UNK         0.0300 
     47 H47       -17.6926  -10.2351   37.1688 H         1 UNK         0.0300 
     48 H48       -14.6209   -8.6750   39.1995 H         1 UNK         0.0300 
     49 H49       -13.7815   -8.4552   40.7269 H         1 UNK         0.0300 
     50 H50       -15.3768   -9.1857   40.7342 H         1 UNK         0.0300 
@<TRIPOS>BOND
     1    1    4 ar   
     2    1    9 ar   
     3    1   30 1    
     4    2    3 ar   
     5    2   11 ar   
     6    2   31 1    
     7    3   12 ar   
     8    3   32 1    
     9    4   14 ar   
    10    4   33 1    
    11    5   10 ar   
    12    5   14 ar   
    13    5   34 1    
    14    6   10 ar   
    15    6   15 ar   
    16    6   35 1    
    17    7   11 ar   
    18    7   13 ar   
    19    7   36 1    
    20    8    9 ar   
    21    8   23 ar   
    22    8   37 1    
    23    9   10 ar   
    24   11   16 1    
    25   12   13 ar   
    26   12   27 1    
    27   13   28 1    
    28   14   29 1    
    29   15   20 1    
    30   15   23 ar   
    31   16   24 am   BACKBONE|DICT|INTERRES
    32   16   25 2    
    33   17   19 1    
    34   17   24 1    
    35   17   38 1    
    36   17   39 1    
    37   18   20 1    
    38   18   24 1    
    39   18   40 1    
    40   18   41 1    
    41   19   26 1    
    42   19   42 1    
    43   19   43 1    
    44   20   26 1    
    45   20   44 1    
    46   21   27 1    
    47   21   45 1    
    48   21   46 1    
    49   21   47 1    
    50   22   28 1    
    51   22   48 1    
    52   22   49 1    
    53   22   50 1    
@<TRIPOS>SUBSTRUCTURE
     1 UNK         1 GROUP             0       ****    0 ROOT    
@<TRIPOS>MOLECULE
ZINC19559878_189
50   53    1
SMALL
USER_CHARGES


@<TRIPOS>ATOM
      1 C1        -13.4883  -26.6967   37.1069 C.ar      1 UNK        -0.0460 
      2 C2        -12.3502  -26.5744   36.2842 C.ar      1 UNK        -0.1533 
      3 C3        -14.1097  -25.5440   37.6290 C.ar      1 UNK        -0.4445 
      4 C4        -11.8294  -25.2997   35.9816 C.ar      1 UNK        -0.1818 
      5 C5        -17.4499  -16.1441   37.3280 C.ar      1 UNK        -0.1150 
      6 C6        -18.1515  -15.0088   37.7714 C.ar      1 UNK        -0.1150 
      7 C7        -14.1927  -23.1100   37.8333 C.ar      1 UNK        -0.7531 
      8 C8        -15.3916  -15.1942   38.1927 C.ar      1 UNK        -0.1150 
      9 C9        -11.9724  -22.8547   36.2356 C.ar      1 UNK         0.3967 
     10 C10       -13.5915  -24.2692   37.3289 C.ar      1 UNK         0.6486 
     11 C11       -12.4529  -24.1485   36.5066 C.ar      1 UNK        -0.2505 
     12 C12       -16.0648  -16.2551   37.5589 C.ar      1 UNK        -0.1150 
     13 C13       -17.4864  -13.9476   38.4405 C.ar      1 UNK         0.0850 
     14 C14       -16.0748  -14.0434   38.6350 C.ar      1 UNK         0.0850 
     15 C15       -13.6296  -21.8627   37.5102 C.ar      1 UNK         0.4151 
     16 C16       -15.2922  -17.4520   37.0814 C.2       1 UNK         0.6150 
     17 C17       -16.5592  -18.9759   38.6219 C.3       1 UNK        -0.0500 
     18 C18       -15.1195  -19.9099   36.9247 C.3       1 UNK        -0.0500 
     19 C19       -15.6729  -19.6251   39.6973 C.3       1 UNK         0.1400 
     20 C20       -14.2550  -20.5694   38.0166 C.3       1 UNK         0.2850 
     21 C21       -19.5737  -12.7598   38.7198 C.3       1 UNK         0.1100 
     22 C22       -15.7159  -11.7669   39.3921 C.3       1 UNK         0.1100 
     23 N23       -12.5455  -21.7362   36.7205 N.ar      1 UNK        -0.6841 
     24 N24       -15.7152  -18.6812   37.4590 N.am      1 UNK        -0.1400 
     25 O25       -14.3175  -17.2771   36.3533 O.2       1 UNK        -0.5000 
     26 O26       -15.0753  -20.8030   39.1676 O.3       1 UNK        -0.4000 
     27 O27       -18.1693  -12.8453   38.9152 O.3       1 UNK        -0.2850 
     28 O28       -15.2683  -13.1059   39.2502 O.3       1 UNK        -0.2850 
     29 H29       -13.8840  -27.6756   37.3370 H         1 UNK         0.1382 
     30 H30       -11.8764  -27.4614   35.8852 H         1 UNK         0.1414 
     31 H31       -14.9800  -25.6386   38.2591 H         1 UNK         0.2009 
     32 H32       -10.9574  -25.2079   35.3508 H         1 UNK         0.1598 
     33 H33       -17.9798  -16.9325   36.8125 H         1 UNK         0.1150 
     34 H34       -19.2131  -14.9819   37.5831 H         1 UNK         0.1150 
     35 H35       -15.0625  -23.1584   38.4696 H         1 UNK         0.2410 
     36 H36       -14.3229  -15.2590   38.3418 H         1 UNK         0.1150 
     37 H37       -11.1045  -22.7086   35.6096 H         1 UNK         0.0566 
     38 H38       -17.3616  -19.6544   38.3296 H         1 UNK         0.0600 
     39 H39       -17.0413  -18.0994   39.0522 H         1 UNK         0.0600 
     40 H40       -14.5128  -19.7245   36.0361 H         1 UNK         0.0600 
     41 H41       -15.9086  -20.5935   36.6105 H         1 UNK         0.0600 
     42 H42       -14.9014  -18.9340   40.0415 H         1 UNK         0.0300 
     43 H43       -16.2713  -19.8945   40.5678 H         1 UNK         0.0300 
     44 H44       -13.4433  -19.8959   38.3000 H         1 UNK         0.0300 
     45 H45       -19.9390  -11.8310   39.1574 H         1 UNK         0.0300 
     46 H46       -20.0967  -13.5809   39.2118 H         1 UNK         0.0300 
     47 H47       -19.8304  -12.7458   37.6596 H         1 UNK         0.0300 
     48 H48       -16.1454  -11.3808   38.4667 H         1 UNK         0.0300 
     49 H49       -14.8657  -11.1337   39.6450 H         1 UNK         0.0300 
     50 H50       -16.4388  -11.6738   40.2028 H         1 UNK         0.0300 
@<TRIPOS>BOND
     1    1    2 ar   
     2    1    3 ar   
     3    1   29 1    
     4    2    4 ar   
     5    2   30 1    
     6    3   10 ar   
     7    3   31 1    
     8    4   11 ar   
     9    4   32 1    
    10    5    6 ar   
    11    5   12 ar   
    12    5   33 1    
    13    6   13 ar   
    14    6   34 1    
    15    7   10 ar   
    16    7   15 ar   
    17    7   35 1    
    18    8   12 ar   
    19    8   14 ar   
    20    8   36 1    
    21    9   11 ar   
    22    9   23 ar   
    23    9   37 1    
    24   10   11 ar   
    25   12   16 1    
    26   13   14 ar   
    27   13   27 1    
    28   14   28 1    
    29   15   20 1    
    30   15   23 ar   
    31   16   24 am   BACKBONE|DICT|INTERRES
    32   16   25 2    
    33   17   19 1    
    34   17   24 1    
    35   17   38 1    
    36   17   39 1    
    37   18   20 1    
    38   18   24 1    
    39   18   40 1    
    40   18   41 1    
    41   19   26 1    
    42   19   42 1    
    43   19   43 1    
    44   20   26 1    
    45   20   44 1    
    46   21   27 1    
    47   21   45 1    
    48   21   46 1    
    49   21   47 1    
    50   22   28 1    
    51   22   48 1    
    52   22   49 1    
    53   22   50 1    
@<TRIPOS>SUBSTRUCTURE
     1 UNK         1 GROUP             0       ****    0 ROOT    
@<TRIPOS>MOLECULE
ZINC19559881_169
50   53    1
SMALL
USER_CHARGES


@<TRIPOS>ATOM
      1 C1         -2.8126  -12.4002   34.6201 C.ar      1 UNK        -0.0460 
      2 C2         -3.3738  -11.7622   33.4953 C.ar      1 UNK        -0.1533 
      3 C3         -3.1908  -12.0043   35.9192 C.ar      1 UNK        -0.4445 
      4 C4         -4.3155  -10.7270   33.6655 C.ar      1 UNK        -0.1818 
      5 C5         -6.2222   -3.8430   39.6292 C.ar      1 UNK        -0.1150 
      6 C6         -6.5861   -2.9929   38.5714 C.ar      1 UNK        -0.1150 
      7 C7         -4.5193  -10.5564   37.3722 C.ar      1 UNK        -0.7531 
      8 C8         -7.4769   -5.6428   38.5866 C.ar      1 UNK        -0.1150 
      9 C9         -5.6258   -9.3059   35.1894 C.ar      1 UNK         0.3967 
     10 C10        -4.1309  -10.9705   36.0925 C.ar      1 UNK         0.6486 
     11 C11        -4.6919  -10.3334   34.9667 C.ar      1 UNK        -0.2505 
     12 C12        -6.6435   -5.1847   39.6301 C.ar      1 UNK        -0.1150 
     13 C13        -7.3790   -3.4508   37.5004 C.ar      1 UNK         0.0850 
     14 C14        -7.8512   -4.7984   37.5081 C.ar      1 UNK         0.0850 
     15 C15        -5.4655   -9.5244   37.4866 C.ar      1 UNK         0.4151 
     16 C16        -6.2683   -6.0796   40.7787 C.2       1 UNK         0.6150 
     17 C17        -5.3867   -8.2554   41.5589 C.3       1 UNK        -0.0500 
     18 C18        -5.1455   -7.7229   39.2237 C.3       1 UNK        -0.0500 
     19 C19        -6.1243   -9.5473   41.1681 C.3       1 UNK         0.1400 
     20 C20        -5.9035   -9.0107   38.8497 C.3       1 UNK         0.2850 
     21 C21        -8.1168   -2.8832   35.2583 C.3       1 UNK         0.1100 
     22 C22        -9.0863   -6.6003   36.4706 C.3       1 UNK         0.1100 
     23 N23        -6.0059   -8.9053   36.4187 N.ar      1 UNK        -0.6841 
     24 N24        -5.6411   -7.2526   40.5214 N.am      1 UNK        -0.1400 
     25 O25        -6.5355   -5.7113   41.9212 O.2       1 UNK        -0.5000 
     26 O26        -5.6864   -9.9782   39.8816 O.3       1 UNK        -0.4000 
     27 O27        -7.6358   -2.4956   36.5357 O.3       1 UNK        -0.2850 
     28 O28        -8.6733   -5.2411   36.4906 O.3       1 UNK        -0.2850 
     29 H29        -2.0915  -13.1940   34.4858 H         1 UNK         0.1382 
     30 H30        -3.0800  -12.0685   32.5001 H         1 UNK         0.1414 
     31 H31        -2.7606  -12.4934   36.7790 H         1 UNK         0.2009 
     32 H32        -4.7441  -10.2396   32.8018 H         1 UNK         0.1598 
     33 H33        -5.6171   -3.4641   40.4412 H         1 UNK         0.1150 
     34 H34        -6.2485   -1.9668   38.5750 H         1 UNK         0.1150 
     35 H35        -4.1162  -11.0175   38.2607 H         1 UNK         0.2410 
     36 H36        -7.8288   -6.6598   38.6406 H         1 UNK         0.1150 
     37 H37        -6.0818   -8.7860   34.3596 H         1 UNK         0.0566 
     38 H38        -5.7157   -7.9339   42.5487 H         1 UNK         0.0600 
     39 H39        -4.3141   -8.4369   41.6393 H         1 UNK         0.0600 
     40 H40        -4.0780   -7.9341   39.2965 H         1 UNK         0.0600 
     41 H41        -5.2356   -6.9843   38.4282 H         1 UNK         0.0600 
     42 H42        -5.9178  -10.3346   41.8936 H         1 UNK         0.0300 
     43 H43        -7.2048   -9.3931   41.1646 H         1 UNK         0.0300 
     44 H44        -6.9751   -8.8112   38.7930 H         1 UNK         0.0300 
     45 H45        -8.0261   -2.0396   34.5743 H         1 UNK         0.0300 
     46 H46        -9.1723   -3.1548   35.2963 H         1 UNK         0.0300 
     47 H47        -7.5366   -3.7060   34.8380 H         1 UNK         0.0300 
     48 H48        -9.6861   -6.7794   35.5787 H         1 UNK         0.0300 
     49 H49        -9.7043   -6.8431   37.3358 H         1 UNK         0.0300 
     50 H50        -8.2332   -7.2774   36.4315 H         1 UNK         0.0300 
@<TRIPOS>BOND
     1    1    2 ar   
     2    1    3 ar   
     3    1   29 1    
     4    2    4 ar   
     5    2   30 1    
     6    3   10 ar   
     7    3   31 1    
     8    4   11 ar   
     9    4   32 1    
    10    5    6 ar   
    11    5   12 ar   
    12    5   33 1    
    13    6   13 ar   
    14    6   34 1    
    15    7   10 ar   
    16    7   15 ar   
    17    7   35 1    
    18    8   12 ar   
    19    8   14 ar   
    20    8   36 1    
    21    9   11 ar   
    22    9   23 ar   
    23    9   37 1    
    24   10   11 ar   
    25   12   16 1    
    26   13   14 ar   
    27   13   27 1    
    28   14   28 1    
    29   15   20 1    
    30   15   23 ar   
    31   16   24 am   BACKBONE|DICT|INTERRES
    32   16   25 2    
    33   17   19 1    
    34   17   24 1    
    35   17   38 1    
    36   17   39 1    
    37   18   20 1    
    38   18   24 1    
    39   18   40 1    
    40   18   41 1    
    41   19   26 1    
    42   19   42 1    
    43   19   43 1    
    44   20   26 1    
    45   20   44 1    
    46   21   27 1    
    47   21   45 1    
    48   21   46 1    
    49   21   47 1    
    50   22   28 1    
    51   22   48 1    
    52   22   49 1    
    53   22   50 1    
@<TRIPOS>SUBSTRUCTURE
     1 UNK         1 GROUP             0       ****    0 ROOT    
@<TRIPOS>MOLECULE
ZINC19570060_63
52   55    1
SMALL
USER_CHARGES


@<TRIPOS>ATOM
      1 C1         -8.7256  -16.2341   35.1459 C.ar      1 UNK        -0.7385 
      2 C2         -7.6445  -13.0303   36.4892 C.ar      1 UNK        -0.4083 
      3 C3        -12.1350  -10.1342   38.8562 C.ar      1 UNK        -0.1150 
      4 C4        -10.2816   -8.5888   39.1865 C.ar      1 UNK        -0.1150 
      5 C5         -8.2221  -16.2255   33.8399 C.ar      1 UNK         0.4611 
      6 C6         -7.2686  -14.1052   34.1055 C.ar      1 UNK         0.3268 
      7 C7         -7.7320  -14.0117   35.4414 C.ar      1 UNK        -0.1310 
      8 C8        -10.9493   -9.7800   39.5375 C.ar      1 UNK        -0.1150 
      9 C9        -12.6201   -9.3353   37.8006 C.ar      1 UNK        -0.1150 
     10 C10       -10.7588   -7.7832   38.1321 C.ar      1 UNK        -0.1150 
     11 C11        -8.4719  -15.1148   35.9390 C.ar      1 UNK         0.5884 
     12 C12       -11.9190   -8.1678   37.4224 C.ar      1 UNK         0.0850 
     13 C13        -8.3145  -13.5365   37.5724 C.ar      1 UNK         0.0418 
     14 C14       -10.4330  -10.6151   40.6760 C.2       1 UNK         0.6150 
     15 C15        -8.3331  -13.1980   41.4450 C.3       1 UNK        -0.1200 
     16 C16        -8.0116  -13.8006   40.0654 C.3       1 UNK        -0.1200 
     17 C17        -9.8265  -12.8425   41.5540 C.3       1 UNK        -0.0500 
     18 C18       -10.0309  -12.5714   39.1421 C.3       1 UNK        -0.0500 
     19 C19        -8.5446  -12.9194   38.9157 C.3       1 UNK         0.0550 
     20 C20       -13.8968   -9.7326   37.0848 C.3       1 UNK        -0.0650 
     21 C21       -10.0246   -6.5053   37.7740 C.3       1 UNK        -0.0650 
     22 C22       -11.8492   -7.7656   35.1291 C.3       1 UNK         0.1100 
     23 N23        -7.5192  -15.1930   33.3414 N.ar      1 UNK        -0.6967 
     24 N24        -8.8080  -14.7867   37.2351 N.pl3     1 UNK        -0.5476 
     25 N25       -10.1915  -11.9333   40.4591 N.am      1 UNK        -0.1400 
     26 O26       -10.2500  -10.0767   41.7674 O.2       1 UNK        -0.5000 
     27 O27       -12.3812   -7.3938   36.3905 O.3       1 UNK        -0.2850 
     28 H28        -9.2859  -17.0792   35.5109 H         1 UNK         0.2456 
     29 H29        -7.1436  -12.0753   36.4173 H         1 UNK         0.2197 
     30 H30       -12.6738  -11.0242   39.1482 H         1 UNK         0.1150 
     31 H31        -9.3973   -8.2962   39.7353 H         1 UNK         0.1150 
     32 H32        -8.3859  -17.0632   33.1774 H         1 UNK         0.0485 
     33 H33        -6.6998  -13.3064   33.6538 H         1 UNK         0.0799 
     34 H34        -8.0536  -13.8969   42.2343 H         1 UNK         0.0600 
     35 H35        -7.7338  -12.2998   41.6036 H         1 UNK         0.0600 
     36 H36        -6.9351  -13.9420   39.9598 H         1 UNK         0.0600 
     37 H37        -8.4575  -14.7935   40.0059 H         1 UNK         0.0600 
     38 H38       -10.4365  -13.7444   41.4921 H         1 UNK         0.0600 
     39 H39       -10.0366  -12.4137   42.5360 H         1 UNK         0.0600 
     40 H40       -10.3603  -11.9469   38.3134 H         1 UNK         0.0600 
     41 H41       -10.6483  -13.4689   39.1000 H         1 UNK         0.0600 
     42 H42        -7.9865  -11.9814   38.9448 H         1 UNK         0.0600 
     43 H43       -14.4834   -8.8505   36.8257 H         1 UNK         0.0600 
     44 H44       -13.6637  -10.2726   36.1674 H         1 UNK         0.0600 
     45 H45       -14.5178  -10.3715   37.7124 H         1 UNK         0.0600 
     46 H46        -9.3537   -6.6779   36.9328 H         1 UNK         0.0600 
     47 H47       -10.7289   -5.7201   37.4977 H         1 UNK         0.0600 
     48 H48        -9.4349   -6.1419   38.6159 H         1 UNK         0.0600 
     49 H49       -12.2524   -7.1117   34.3561 H         1 UNK         0.0300 
     50 H50       -12.1137   -8.7920   34.8722 H         1 UNK         0.0300 
     51 H51       -10.7628   -7.6739   35.1124 H         1 UNK         0.0300 
     52 H52        -9.3324  -15.3663   37.8699 H         1 UNK         0.3953 
@<TRIPOS>BOND
     1    1    5 ar   
     2    1   11 ar   
     3    1   28 1    
     4    2    7 ar   
     5    2   13 ar   
     6    2   29 1    
     7    3    8 ar   
     8    3    9 ar   
     9    3   30 1    
    10    4    8 ar   
    11    4   10 ar   
    12    4   31 1    
    13    5   23 ar   
    14    5   32 1    
    15    6    7 ar   
    16    6   23 ar   
    17    6   33 1    
    18    7   11 ar   
    19    8   14 1    
    20    9   12 ar   
    21    9   20 1    
    22   10   12 ar   
    23   10   21 1    
    24   11   24 ar   
    25   12   27 1    
    26   13   19 1    
    27   13   24 ar   
    28   14   25 am   BACKBONE|DICT|INTERRES
    29   14   26 2    
    30   15   16 1    
    31   15   17 1    
    32   15   34 1    
    33   15   35 1    
    34   16   19 1    
    35   16   36 1    
    36   16   37 1    
    37   17   25 1    
    38   17   38 1    
    39   17   39 1    
    40   18   19 1    
    41   18   25 1    
    42   18   40 1    
    43   18   41 1    
    44   19   42 1    
    45   20   43 1    
    46   20   44 1    
    47   20   45 1    
    48   21   46 1    
    49   21   47 1    
    50   21   48 1    
    51   22   27 1    
    52   22   49 1    
    53   22   50 1    
    54   22   51 1    
    55   24   52 1    
@<TRIPOS>SUBSTRUCTURE
     1 UNK         1 GROUP             0       ****    0 ROOT    
@<TRIPOS>MOLECULE
ZINC19678604_205
46   48    1
SMALL
USER_CHARGES


@<TRIPOS>ATOM
      1 C1         -5.8606  -11.6471   37.0635 C.ar      1 UNK        -0.1150 
      2 C2         -4.5228   -9.6255   36.8415 C.ar      1 UNK        -0.1150 
      3 C3         -5.5656  -11.9873   35.7287 C.ar      1 UNK        -0.1150 
      4 C4         -4.2262   -9.9651   35.5072 C.ar      1 UNK        -0.1150 
      5 C5         -7.6677   -5.6590   37.8055 C.ar      1 UNK        -0.1150 
      6 C6         -7.8453   -4.0781   39.6553 C.ar      1 UNK        -0.1150 
      7 C7         -8.8969   -3.5826   37.5183 C.ar      1 UNK        -0.1150 
      8 C8         -6.4203   -9.9150   41.3518 C.2       1 UNK        -0.3376 
      9 C9         -5.3423  -10.4613   37.6339 C.ar      1 UNK         0.0000 
     10 C10        -4.7473  -11.1483   34.9470 C.ar      1 UNK        -0.1150 
     11 C11        -7.3782   -5.3107   39.1413 C.ar      1 UNK         0.0850 
     12 C12        -8.4335   -4.7991   36.9818 C.ar      1 UNK         0.0850 
     13 C13        -8.6142   -3.2063   38.8457 C.ar      1 UNK         0.0850 
     14 C14        -5.7775   -8.7882   40.9031 C.2       1 UNK         0.1693 
     15 C15        -5.6468  -10.0811   39.0160 C.2       1 UNK         0.3009 
     16 C16        -6.4237   -6.3604   41.2154 C.2       1 UNK         0.5000 
     17 C17        -4.4364  -11.5195   33.5117 C.3       1 UNK        -0.0650 
     18 C18        -8.3162   -6.2949   35.1052 C.3       1 UNK         0.1100 
     19 C19        -8.8818   -1.6043   40.6149 C.3       1 UNK         0.1100 
     20 C20        -5.5222   -7.5164   41.6737 C.3       1 UNK        -0.0050 
     21 N21        -5.3331   -8.9075   39.5789 N.2       1 UNK        -0.4803 
     22 N22        -6.5915   -6.2303   39.8869 N.am      1 UNK        -0.3850 
     23 O23        -6.9215   -5.6158   42.0587 O.2       1 UNK        -0.5000 
     24 O24        -8.7629   -5.0711   35.6710 O.3       1 UNK        -0.2850 
     25 O25        -9.1127   -1.9922   39.2680 O.3       1 UNK        -0.2850 
     26 S26        -6.5069  -11.1510   40.1257 S.3       1 UNK         0.0010 
     27 H27        -6.4932  -12.3079   37.6366 H         1 UNK         0.1150 
     28 H28        -4.1132   -8.7167   37.2578 H         1 UNK         0.1150 
     29 H29        -5.9721  -12.8954   35.3072 H         1 UNK         0.1150 
     30 H30        -3.5966   -9.3125   34.9197 H         1 UNK         0.1150 
     31 H31        -7.2968   -6.5992   37.4273 H         1 UNK         0.1150 
     32 H32        -7.6052   -3.7996   40.6682 H         1 UNK         0.1150 
     33 H33        -9.4824   -2.9210   36.8972 H         1 UNK         0.1150 
     34 H34        -6.8556  -10.0934   42.3246 H         1 UNK         0.2317 
     35 H35        -5.3134  -11.3610   32.8836 H         1 UNK         0.0600 
     36 H36        -3.6181  -10.9185   33.1138 H         1 UNK         0.0600 
     37 H37        -4.1480  -12.5687   33.4418 H         1 UNK         0.0600 
     38 H38        -8.6628   -6.3618   34.0739 H         1 UNK         0.0300 
     39 H39        -8.7180   -7.1542   35.6436 H         1 UNK         0.0300 
     40 H40        -7.2272   -6.3535   35.0910 H         1 UNK         0.0300 
     41 H41        -9.3582   -0.6415   40.7989 H         1 UNK         0.0300 
     42 H42        -7.8165   -1.4893   40.8198 H         1 UNK         0.0300 
     43 H43        -9.3093   -2.3225   41.3160 H         1 UNK         0.0300 
     44 H44        -5.6796   -7.6788   42.7404 H         1 UNK         0.0600 
     45 H45        -4.4835   -7.2048   41.5637 H         1 UNK         0.0600 
     46 H46        -6.1539   -6.9774   39.3589 H         1 UNK         0.3000 
@<TRIPOS>BOND
     1    1    3 ar   
     2    1    9 ar   
     3    1   27 1    
     4    2    4 ar   
     5    2    9 ar   
     6    2   28 1    
     7    3   10 ar   
     8    3   29 1    
     9    4   10 ar   
    10    4   30 1    
    11    5   11 ar   
    12    5   12 ar   
    13    5   31 1    
    14    6   11 ar   
    15    6   13 ar   
    16    6   32 1    
    17    7   12 ar   
    18    7   13 ar   
    19    7   33 1    
    20    8   14 2    
    21    8   26 1    
    22    8   34 1    
    23    9   15 1    
    24   10   17 1    
    25   11   22 1    
    26   12   24 1    
    27   13   25 1    
    28   14   20 1    
    29   14   21 1    
    30   15   21 2    
    31   15   26 1    
    32   16   20 1    
    33   16   22 am   BACKBONE|DICT|INTERRES
    34   16   23 2    
    35   17   35 1    
    36   17   36 1    
    37   17   37 1    
    38   18   24 1    
    39   18   38 1    
    40   18   39 1    
    41   18   40 1    
    42   19   25 1    
    43   19   41 1    
    44   19   42 1    
    45   19   43 1    
    46   20   44 1    
    47   20   45 1    
    48   22   46 1    
@<TRIPOS>SUBSTRUCTURE
     1 UNK         1 GROUP             0       ****    0 ROOT    
@<TRIPOS>MOLECULE
ZINC19679164_262
46   48    1
SMALL
USER_CHARGES


@<TRIPOS>ATOM
      1 C1         -5.8020  -11.9802   37.0132 C.ar      1 UNK        -0.1150 
      2 C2         -4.2882  -10.0857   36.8015 C.ar      1 UNK        -0.1150 
      3 C3         -5.4322  -12.4180   35.7263 C.ar      1 UNK        -0.1150 
      4 C4         -3.9172  -10.5225   35.5149 C.ar      1 UNK        -0.1150 
      5 C5         -7.4016   -5.7711   37.4634 C.ar      1 UNK        -0.1150 
      6 C6         -8.0854   -4.8762   36.6253 C.ar      1 UNK        -0.1150 
      7 C7         -7.5387   -4.1506   39.2679 C.ar      1 UNK        -0.1150 
      8 C8         -6.5089  -10.0004   41.1695 C.2       1 UNK        -0.3376 
      9 C9         -5.2333  -10.8086   37.5644 C.ar      1 UNK         0.0000 
     10 C10        -4.4897  -11.6905   34.9732 C.ar      1 UNK        -0.1150 
     11 C11        -7.1312   -5.4199   38.7968 C.ar      1 UNK         0.0850 
     12 C12        -8.5131   -3.6154   37.0851 C.ar      1 UNK         0.0850 
     13 C13        -8.2341   -3.2342   38.4335 C.ar      1 UNK         0.0850 
     14 C14        -5.7688   -8.9397   40.7097 C.2       1 UNK         0.1693 
     15 C15        -5.6082  -10.3316   38.8983 C.2       1 UNK         0.3009 
     16 C16        -6.3116   -6.4790   40.9193 C.2       1 UNK         0.5000 
     17 C17        -4.0952  -12.1689   33.5912 C.3       1 UNK        -0.0650 
     18 C18        -9.7504   -1.6140   36.4573 C.3       1 UNK         0.1100 
     19 C19        -8.3883   -1.6397   40.2476 C.3       1 UNK         0.1100 
     20 C20        -5.4702   -7.6537   41.4371 C.3       1 UNK        -0.0050 
     21 N21        -5.2589   -9.1495   39.4215 N.2       1 UNK        -0.4803 
     22 N22        -6.4217   -6.3677   39.5827 N.am      1 UNK        -0.3850 
     23 O23        -6.8191   -5.7036   41.7286 O.2       1 UNK        -0.5000 
     24 O24        -9.1738   -2.8674   36.1284 O.3       1 UNK        -0.2850 
     25 O25        -8.6313   -1.9928   38.8927 O.3       1 UNK        -0.2850 
     26 S26        -6.6017  -11.2887   39.9996 S.3       1 UNK         0.0010 
     27 H27        -6.5300  -12.5555   37.5647 H         1 UNK         0.1150 
     28 H28        -3.8387   -9.1897   37.2047 H         1 UNK         0.1150 
     29 H29        -5.8764  -13.3153   35.3197 H         1 UNK         0.1150 
     30 H30        -3.1906   -9.9563   34.9502 H         1 UNK         0.1150 
     31 H31        -7.0944   -6.7302   37.0716 H         1 UNK         0.1150 
     32 H32        -8.2921   -5.1601   35.6041 H         1 UNK         0.1150 
     33 H33        -7.3003   -3.8794   40.2818 H         1 UNK         0.1150 
     34 H34        -7.0098  -10.1032   42.1214 H         1 UNK         0.2317 
     35 H35        -4.9823  -12.3928   32.9980 H         1 UNK         0.0600 
     36 H36        -3.5155  -11.4144   33.0586 H         1 UNK         0.0600 
     37 H37        -3.4923  -13.0743   33.6641 H         1 UNK         0.0600 
     38 H38       -10.2789   -1.2280   35.5860 H         1 UNK         0.0300 
     39 H39        -8.9883   -0.8806   36.7228 H         1 UNK         0.0300 
     40 H40       -10.4794   -1.7048   37.2635 H         1 UNK         0.0300 
     41 H41        -8.7937   -0.6458   40.4361 H         1 UNK         0.0300 
     42 H42        -7.3201   -1.6036   40.4655 H         1 UNK         0.0300 
     43 H43        -8.8782   -2.3293   40.9367 H         1 UNK         0.0300 
     44 H44        -5.6519   -7.7688   42.5061 H         1 UNK         0.0600 
     45 H45        -4.4171   -7.3918   41.3345 H         1 UNK         0.0600 
     46 H46        -5.9992   -7.1400   39.0800 H         1 UNK         0.3000 
@<TRIPOS>BOND
     1    1    3 ar   
     2    1    9 ar   
     3    1   27 1    
     4    2    4 ar   
     5    2    9 ar   
     6    2   28 1    
     7    3   10 ar   
     8    3   29 1    
     9    4   10 ar   
    10    4   30 1    
    11    5    6 ar   
    12    5   11 ar   
    13    5   31 1    
    14    6   12 ar   
    15    6   32 1    
    16    7   11 ar   
    17    7   13 ar   
    18    7   33 1    
    19    8   14 2    
    20    8   26 1    
    21    8   34 1    
    22    9   15 1    
    23   10   17 1    
    24   11   22 1    
    25   12   13 ar   
    26   12   24 1    
    27   13   25 1    
    28   14   20 1    
    29   14   21 1    
    30   15   21 2    
    31   15   26 1    
    32   16   20 1    
    33   16   22 am   BACKBONE|DICT|INTERRES
    34   16   23 2    
    35   17   35 1    
    36   17   36 1    
    37   17   37 1    
    38   18   24 1    
    39   18   38 1    
    40   18   39 1    
    41   18   40 1    
    42   19   25 1    
    43   19   41 1    
    44   19   42 1    
    45   19   43 1    
    46   20   44 1    
    47   20   45 1    
    48   22   46 1    
@<TRIPOS>SUBSTRUCTURE
     1 UNK         1 GROUP             0       ****    0 ROOT    
@<TRIPOS>MOLECULE
ZINC19679170_285
46   48    1
SMALL
USER_CHARGES


@<TRIPOS>ATOM
      1 C1         -3.7957  -10.2525   35.5049 C.ar      1 UNK        -0.1150 
      2 C2         -4.1744   -9.8210   36.7907 C.ar      1 UNK        -0.1150 
      3 C3         -4.1403  -11.5436   35.0652 C.ar      1 UNK        -0.1150 
      4 C4         -7.2131   -5.7397   37.4368 C.ar      1 UNK        -0.1150 
      5 C5         -7.9181   -4.8942   36.5659 C.ar      1 UNK        -0.1150 
      6 C6         -5.2411  -11.9716   37.2001 C.ar      1 UNK        -0.1150 
      7 C7         -7.5596   -4.1419   39.2332 C.ar      1 UNK        -0.1150 
      8 C8         -6.2050   -9.8865   41.2537 C.2       1 UNK        -0.3376 
      9 C9         -4.9018  -10.6744   37.6518 C.ar      1 UNK         0.0000 
     10 C10        -4.8648  -12.4058   35.9118 C.ar      1 UNK        -0.1150 
     11 C11        -7.0335   -5.3743   38.7817 C.ar      1 UNK         0.0850 
     12 C12        -8.4575   -3.6690   37.0036 C.ar      1 UNK         0.0850 
     13 C13        -8.2803   -3.2770   38.3660 C.ar      1 UNK         0.0850 
     14 C14        -5.5290   -8.7923   40.7744 C.2       1 UNK         0.1693 
     15 C15        -5.2928  -10.2017   38.9836 C.2       1 UNK         0.3009 
     16 C16        -6.2008   -6.3598   40.9374 C.2       1 UNK         0.5000 
     17 C17        -5.2324  -13.7979   35.4409 C.3       1 UNK        -0.0650 
     18 C18        -9.7445   -1.7257   36.2972 C.3       1 UNK         0.1100 
     19 C19        -8.6852   -1.7297   40.1826 C.3       1 UNK         0.1100 
     20 C20        -5.3037   -7.4801   41.4818 C.3       1 UNK        -0.0050 
     21 N21        -5.0117   -8.9929   39.4874 N.2       1 UNK        -0.4803 
     22 N22        -6.2938   -6.2719   39.5979 N.am      1 UNK        -0.3850 
     23 O23        -6.7641   -5.6049   41.7289 O.2       1 UNK        -0.5000 
     24 O24        -9.1189   -2.9663   36.0138 O.3       1 UNK        -0.2850 
     25 O25        -8.7998   -2.0755   38.8088 O.3       1 UNK        -0.2850 
     26 S26        -6.2266  -11.1962   40.1044 S.3       1 UNK         0.0010 
     27 H27        -3.2389   -9.5920   34.8560 H         1 UNK         0.1150 
     28 H28        -3.9012   -8.8276   37.1155 H         1 UNK         0.1150 
     29 H29        -3.8449  -11.8685   34.0776 H         1 UNK         0.1150 
     30 H30        -6.8172   -6.6719   37.0601 H         1 UNK         0.1150 
     31 H31        -8.0521   -5.1886   35.5356 H         1 UNK         0.1150 
     32 H32        -5.7937  -12.6466   37.8359 H         1 UNK         0.1150 
     33 H33        -7.3951   -3.8572   40.2580 H         1 UNK         0.1150 
     34 H34        -6.6966  -10.0027   42.2088 H         1 UNK         0.2317 
     35 H35        -4.4282  -14.4972   35.6708 H         1 UNK         0.0600 
     36 H36        -6.1426  -14.1486   35.9282 H         1 UNK         0.0600 
     37 H37        -5.4024  -13.8119   34.3639 H         1 UNK         0.0600 
     38 H38       -10.2193   -1.3535   35.3899 H         1 UNK         0.0300 
     39 H39        -9.0204   -0.9744   36.6138 H         1 UNK         0.0300 
     40 H40       -10.5259   -1.8331   37.0502 H         1 UNK         0.0300 
     41 H41        -9.1911   -0.7800   40.3556 H         1 UNK         0.0300 
     42 H42        -7.6427   -1.6025   40.4777 H         1 UNK         0.0300 
     43 H43        -9.1581   -2.4743   40.8250 H         1 UNK         0.0300 
     44 H44        -5.4882   -7.5867   42.5512 H         1 UNK         0.0600 
     45 H45        -4.2648   -7.1652   41.3827 H         1 UNK         0.0600 
     46 H46        -5.8184   -7.0261   39.1155 H         1 UNK         0.3000 
@<TRIPOS>BOND
     1    1    2 ar   
     2    1    3 ar   
     3    1   27 1    
     4    2    9 ar   
     5    2   28 1    
     6    3   10 ar   
     7    3   29 1    
     8    4    5 ar   
     9    4   11 ar   
    10    4   30 1    
    11    5   12 ar   
    12    5   31 1    
    13    6    9 ar   
    14    6   10 ar   
    15    6   32 1    
    16    7   11 ar   
    17    7   13 ar   
    18    7   33 1    
    19    8   14 2    
    20    8   26 1    
    21    8   34 1    
    22    9   15 1    
    23   10   17 1    
    24   11   22 1    
    25   12   13 ar   
    26   12   24 1    
    27   13   25 1    
    28   14   20 1    
    29   14   21 1    
    30   15   21 2    
    31   15   26 1    
    32   16   20 1    
    33   16   22 am   BACKBONE|DICT|INTERRES
    34   16   23 2    
    35   17   35 1    
    36   17   36 1    
    37   17   37 1    
    38   18   24 1    
    39   18   38 1    
    40   18   39 1    
    41   18   40 1    
    42   19   25 1    
    43   19   41 1    
    44   19   42 1    
    45   19   43 1    
    46   20   44 1    
    47   20   45 1    
    48   22   46 1    
@<TRIPOS>SUBSTRUCTURE
     1 UNK         1 GROUP             0       ****    0 ROOT    
@<TRIPOS>MOLECULE
ZINC19826569_22
44   47    1
SMALL
USER_CHARGES


@<TRIPOS>ATOM
      1 C1        -10.0734  -17.0263   36.5074 C.ar      1 UNK        -0.1150 
      2 C2         -9.3286  -16.5504   35.4144 C.ar      1 UNK        -0.1150 
      3 C3        -12.3898  -10.9523   38.2378 C.ar      1 UNK        -0.1150 
      4 C4        -10.1926  -16.2421   37.6698 C.ar      1 UNK        -0.1150 
      5 C5         -8.7013  -15.2931   35.4849 C.ar      1 UNK        -0.1150 
      6 C6        -13.0678  -10.2210   37.2487 C.ar      1 UNK        -0.1150 
      7 C7        -11.5748   -8.8718   39.1844 C.ar      1 UNK        -0.1150 
      8 C8        -11.6301  -10.2809   39.2145 C.ar      1 UNK         0.0000 
      9 C9         -9.5680  -14.9763   37.7520 C.ar      1 UNK         0.0044 
     10 C10        -8.8097  -14.4972   36.6462 C.ar      1 UNK        -0.1150 
     11 C11       -13.0166   -8.8136   37.2067 C.ar      1 UNK         0.0850 
     12 C12       -12.2584   -8.1151   38.1962 C.ar      1 UNK         0.0850 
     13 C13       -10.8992  -11.0110   40.2557 C.ar      1 UNK         0.4100 
     14 C14        -9.7408  -12.4098   41.3281 C.ar      1 UNK         0.5625 
     15 C15        -9.7431  -14.2019   39.0084 C.2       1 UNK         0.3492 
     16 C16        -9.4609  -14.8764   40.3519 C.3       1 UNK         0.0836 
     17 C17        -8.0937  -13.1536   36.6667 C.3       1 UNK        -0.0650 
     18 C18       -13.8084   -6.8526   35.9992 C.3       1 UNK         0.1100 
     19 C19       -11.4969   -6.0509   39.2016 C.3       1 UNK         0.1100 
     20 N20       -10.7695  -10.5300   41.5011 N.2       1 UNK        -0.3633 
     21 N21       -10.0116  -11.4455   42.2022 N.2       1 UNK        -0.3633 
     22 N22       -10.1443  -12.9908   38.9573 N.2       1 UNK        -0.3897 
     23 N23       -10.2690  -12.2001   40.1077 N.pl3     1 UNK        -0.0934 
     24 O24       -13.7412   -8.2591   36.1682 O.3       1 UNK        -0.2850 
     25 O25       -12.2003   -6.7352   38.1741 O.3       1 UNK        -0.2850 
     26 S26        -8.7684  -13.8297   41.6669 S.3       1 UNK        -0.3200 
     27 H27       -10.5570  -17.9912   36.4516 H         1 UNK         0.1150 
     28 H28        -9.2383  -17.1489   34.5192 H         1 UNK         0.1150 
     29 H29       -12.4618  -12.0295   38.2412 H         1 UNK         0.1150 
     30 H30       -10.7795  -16.6205   38.4945 H         1 UNK         0.1150 
     31 H31        -8.1319  -14.9427   34.6358 H         1 UNK         0.1150 
     32 H32       -13.6445  -10.7478   36.5027 H         1 UNK         0.1150 
     33 H33       -10.9853   -8.3896   39.9487 H         1 UNK         0.1150 
     34 H34       -10.3975  -15.2951   40.7200 H         1 UNK         0.0600 
     35 H35        -8.7831  -15.7162   40.1983 H         1 UNK         0.0600 
     36 H36        -8.8144  -12.3384   36.5918 H         1 UNK         0.0600 
     37 H37        -7.5212  -13.0267   37.5858 H         1 UNK         0.0600 
     38 H38        -7.3984  -13.0604   35.8322 H         1 UNK         0.0600 
     39 H39       -14.2645   -6.3660   36.8620 H         1 UNK         0.0300 
     40 H40       -14.4333   -6.6291   35.1347 H         1 UNK         0.0300 
     41 H41       -12.8242   -6.4249   35.8053 H         1 UNK         0.0300 
     42 H42       -11.5898   -4.9766   39.0441 H         1 UNK         0.0300 
     43 H43       -10.4335   -6.2929   39.1875 H         1 UNK         0.0300 
     44 H44       -11.9088   -6.2739   40.1870 H         1 UNK         0.0300 
@<TRIPOS>BOND
     1    1    2 ar   
     2    1    4 ar   
     3    1   27 1    
     4    2    5 ar   
     5    2   28 1    
     6    3    6 ar   
     7    3    8 ar   
     8    3   29 1    
     9    4    9 ar   
    10    4   30 1    
    11    5   10 ar   
    12    5   31 1    
    13    6   11 ar   
    14    6   32 1    
    15    7    8 ar   
    16    7   12 ar   
    17    7   33 1    
    18    8   13 1    
    19    9   10 ar   
    20    9   15 1    
    21   10   17 1    
    22   11   12 ar   
    23   11   24 1    
    24   12   25 1    
    25   13   20 ar   
    26   13   23 ar   
    27   14   21 ar   
    28   14   23 ar   
    29   14   26 1    
    30   15   16 1    
    31   15   22 2    
    32   16   26 1    
    33   16   34 1    
    34   16   35 1    
    35   17   36 1    
    36   17   37 1    
    37   17   38 1    
    38   18   24 1    
    39   18   39 1    
    40   18   40 1    
    41   18   41 1    
    42   19   25 1    
    43   19   42 1    
    44   19   43 1    
    45   19   44 1    
    46   20   21 ar   
    47   22   23 1    
@<TRIPOS>SUBSTRUCTURE
     1 UNK         1 GROUP             0       ****    0 ROOT    
@<TRIPOS>MOLECULE
ZINC19826585_19
45   48    1
SMALL
USER_CHARGES


@<TRIPOS>ATOM
      1 C1         -5.9216  -10.6286   35.5620 C.ar      1 UNK        -0.1150 
      2 C2         -4.6855  -11.0331   35.0242 C.ar      1 UNK        -0.1150 
      3 C3         -5.9677  -10.0045   36.8235 C.ar      1 UNK        -0.1150 
      4 C4         -3.4972  -10.8084   35.7457 C.ar      1 UNK        -0.1150 
      5 C5         -7.0338   -4.0040   39.4874 C.ar      1 UNK        -0.1150 
      6 C6         -7.8946   -6.1071   38.6099 C.ar      1 UNK        -0.1150 
      7 C7         -7.0483   -5.4135   39.4996 C.ar      1 UNK         0.0000 
      8 C8         -4.7793   -9.7844   37.5567 C.ar      1 UNK         0.0044 
      9 C9         -7.8453   -3.2780   38.5829 C.ar      1 UNK         0.0850 
     10 C10        -8.7108   -5.4040   37.6928 C.ar      1 UNK         0.0850 
     11 C11        -8.6689   -3.9920   37.6796 C.ar      1 UNK         0.0850 
     12 C12        -3.5336  -10.1833   37.0084 C.ar      1 UNK         0.1800 
     13 C13        -6.1819   -6.1348   40.4331 C.ar      1 UNK         0.4100 
     14 C14        -4.8349   -7.4974   41.3133 C.ar      1 UNK         0.5625 
     15 C15        -4.8799   -9.1262   38.8790 C.2       1 UNK         0.3492 
     16 C16        -4.4540   -9.8668   40.1489 C.3       1 UNK         0.0836 
     17 C17        -7.1336   -1.1654   39.4888 C.3       1 UNK         0.1100 
     18 C18        -9.6450   -7.4347   36.8024 C.3       1 UNK         0.1100 
     19 C19        -8.7578   -2.7699   35.6914 C.3       1 UNK         0.1100 
     20 N20        -5.9849   -5.7183   41.6916 N.2       1 UNK        -0.3633 
     21 N21        -5.1040   -6.6118   42.2682 N.2       1 UNK        -0.3633 
     22 N22        -5.3970   -7.9609   38.9455 N.2       1 UNK        -0.3897 
     23 N23        -5.4803   -7.2577   40.1556 N.pl3     1 UNK        -0.0934 
     24 O24        -7.8842   -1.8991   38.5324 O.3       1 UNK        -0.2850 
     25 O25        -9.5510   -6.0190   36.7869 O.3       1 UNK        -0.2850 
     26 O26        -9.4675   -3.3221   36.7879 O.3       1 UNK        -0.2850 
     27 S27        -3.7372   -8.8560   41.4786 S.3       1 UNK        -0.3200 
     28 Cl28       -2.0354   -9.9053   37.8277 Cl        1 UNK        -0.1800 
     29 H29        -6.8334  -10.7936   35.0048 H         1 UNK         0.1150 
     30 H30        -4.6464  -11.5092   34.0545 H         1 UNK         0.1150 
     31 H31        -6.9204   -9.6920   37.2272 H         1 UNK         0.1150 
     32 H32        -2.5483  -11.1097   35.3257 H         1 UNK         0.1150 
     33 H33        -6.3846   -3.5009   40.1880 H         1 UNK         0.1150 
     34 H34        -7.9021   -7.1842   38.6478 H         1 UNK         0.1150 
     35 H35        -5.3375  -10.3597   40.5544 H         1 UNK         0.0600 
     36 H36        -3.7524  -10.6628   39.9037 H         1 UNK         0.0600 
     37 H37        -7.3024   -0.0994   39.3367 H         1 UNK         0.0300 
     38 H38        -6.0637   -1.3476   39.3814 H         1 UNK         0.0300 
     39 H39        -7.4419   -1.4051   40.5075 H         1 UNK         0.0300 
     40 H40       -10.3670   -7.7537   36.0506 H         1 UNK         0.0300 
     41 H41        -9.9930   -7.8017   37.7688 H         1 UNK         0.0300 
     42 H42        -8.6886   -7.8992   36.5592 H         1 UNK         0.0300 
     43 H43        -9.4650   -2.3530   34.9748 H         1 UNK         0.0300 
     44 H44        -8.1735   -3.5346   35.1774 H         1 UNK         0.0300 
     45 H45        -8.0869   -1.9681   35.9999 H         1 UNK         0.0300 
@<TRIPOS>BOND
     1    1    2 ar   
     2    1    3 ar   
     3    1   29 1    
     4    2    4 ar   
     5    2   30 1    
     6    3    8 ar   
     7    3   31 1    
     8    4   12 ar   
     9    4   32 1    
    10    5    7 ar   
    11    5    9 ar   
    12    5   33 1    
    13    6    7 ar   
    14    6   10 ar   
    15    6   34 1    
    16    7   13 1    
    17    8   12 ar   
    18    8   15 1    
    19    9   11 ar   
    20    9   24 1    
    21   10   11 ar   
    22   10   25 1    
    23   11   26 1    
    24   12   28 1    
    25   13   20 ar   
    26   13   23 ar   
    27   14   21 ar   
    28   14   23 ar   
    29   14   27 1    
    30   15   16 1    
    31   15   22 2    
    32   16   27 1    
    33   16   35 1    
    34   16   36 1    
    35   17   24 1    
    36   17   37 1    
    37   17   38 1    
    38   17   39 1    
    39   18   25 1    
    40   18   40 1    
    41   18   41 1    
    42   18   42 1    
    43   19   26 1    
    44   19   43 1    
    45   19   44 1    
    46   19   45 1    
    47   20   21 ar   
    48   22   23 1    
@<TRIPOS>SUBSTRUCTURE
     1 UNK         1 GROUP             0       ****    0 ROOT    
@<TRIPOS>MOLECULE
ZINC19826589_62
45   48    1
SMALL
USER_CHARGES


@<TRIPOS>ATOM
      1 C1         -5.9287  -10.6750   35.5886 C.ar      1 UNK        -0.1150 
      2 C2         -4.6887  -11.0577   35.0436 C.ar      1 UNK        -0.1150 
      3 C3         -5.9781  -10.0445   36.8470 C.ar      1 UNK        -0.1150 
      4 C4         -3.4999  -10.8060   35.7554 C.ar      1 UNK        -0.1150 
      5 C5         -7.0311   -4.0106   39.4749 C.ar      1 UNK        -0.1150 
      6 C6         -7.9015   -6.1160   38.6143 C.ar      1 UNK        -0.1150 
      7 C7         -7.0500   -5.4198   39.4963 C.ar      1 UNK         0.0000 
      8 C8         -4.7884   -9.7985   37.5698 C.ar      1 UNK         0.0044 
      9 C9         -7.8425   -3.2871   38.5680 C.ar      1 UNK         0.0850 
     10 C10        -8.7167   -5.4162   37.6940 C.ar      1 UNK         0.0850 
     11 C11        -8.6695   -4.0044   37.6689 C.ar      1 UNK         0.0850 
     12 C12        -3.5398  -10.1758   37.0153 C.ar      1 UNK         0.2000 
     13 C13        -6.1849   -6.1383   40.4326 C.ar      1 UNK         0.4100 
     14 C14        -4.8412   -7.5007   41.3182 C.ar      1 UNK         0.5625 
     15 C15        -4.8883   -9.1366   38.8889 C.2       1 UNK         0.3492 
     16 C16        -4.4644   -9.8748   40.1608 C.3       1 UNK         0.0836 
     17 C17        -7.1220   -1.1734   39.4662 C.3       1 UNK         0.1100 
     18 C18        -9.6561   -7.4507   36.8182 C.3       1 UNK         0.1100 
     19 C19        -8.7627   -2.7201   35.7120 C.3       1 UNK         0.1100 
     20 N20        -5.9884   -5.7183   41.6901 N.2       1 UNK        -0.3633 
     21 N21        -5.1094   -6.6116   42.2701 N.2       1 UNK        -0.3633 
     22 N22        -5.4027   -7.9702   38.9511 N.2       1 UNK        -0.3897 
     23 N23        -5.4849   -7.2631   40.1591 N.pl3     1 UNK        -0.0934 
     24 O24        -7.8800   -1.9083   38.5167 O.3       1 UNK        -0.2850 
     25 O25        -9.5607   -6.0352   36.7943 O.3       1 UNK        -0.2850 
     26 O26        -9.4712   -3.3453   36.7705 O.3       1 UNK        -0.2850 
     27 S27        -3.7479   -8.8623   41.4895 S.3       1 UNK        -0.3200 
     28 Br28       -1.8882   -9.8346   37.9067 Br        1 UNK        -0.2000 
     29 H29        -6.8409  -10.8617   35.0389 H         1 UNK         0.1150 
     30 H30        -4.6475  -11.5382   34.0762 H         1 UNK         0.1150 
     31 H31        -6.9337   -9.7481   37.2562 H         1 UNK         0.1150 
     32 H32        -2.5478  -11.0899   35.3306 H         1 UNK         0.1150 
     33 H33        -6.3794   -3.5059   40.1719 H         1 UNK         0.1150 
     34 H34        -7.9135   -7.1927   38.6608 H         1 UNK         0.1150 
     35 H35        -5.3485  -10.3663   40.5665 H         1 UNK         0.0600 
     36 H36        -3.7631  -10.6715   39.9170 H         1 UNK         0.0600 
     37 H37        -7.2871   -0.1076   39.3090 H         1 UNK         0.0300 
     38 H38        -6.0533   -1.3606   39.3547 H         1 UNK         0.0300 
     39 H39        -7.4269   -1.4066   40.4875 H         1 UNK         0.0300 
     40 H40       -10.3789   -7.7736   36.0690 H         1 UNK         0.0300 
     41 H41       -10.0039   -7.8109   37.7874 H         1 UNK         0.0300 
     42 H42        -8.7003   -7.9180   36.5775 H         1 UNK         0.0300 
     43 H43        -9.4686   -2.3994   34.9462 H         1 UNK         0.0300 
     44 H44        -8.0575   -3.4098   35.2454 H         1 UNK         0.0300 
     45 H45        -8.2178   -1.8382   36.0475 H         1 UNK         0.0300 
@<TRIPOS>BOND
     1    1    2 ar   
     2    1    3 ar   
     3    1   29 1    
     4    2    4 ar   
     5    2   30 1    
     6    3    8 ar   
     7    3   31 1    
     8    4   12 ar   
     9    4   32 1    
    10    5    7 ar   
    11    5    9 ar   
    12    5   33 1    
    13    6    7 ar   
    14    6   10 ar   
    15    6   34 1    
    16    7   13 1    
    17    8   12 ar   
    18    8   15 1    
    19    9   11 ar   
    20    9   24 1    
    21   10   11 ar   
    22   10   25 1    
    23   11   26 1    
    24   12   28 1    
    25   13   20 ar   
    26   13   23 ar   
    27   14   21 ar   
    28   14   23 ar   
    29   14   27 1    
    30   15   16 1    
    31   15   22 2    
    32   16   27 1    
    33   16   35 1    
    34   16   36 1    
    35   17   24 1    
    36   17   37 1    
    37   17   38 1    
    38   17   39 1    
    39   18   25 1    
    40   18   40 1    
    41   18   41 1    
    42   18   42 1    
    43   19   26 1    
    44   19   43 1    
    45   19   44 1    
    46   19   45 1    
    47   20   21 ar   
    48   22   23 1    
@<TRIPOS>SUBSTRUCTURE
     1 UNK         1 GROUP             0       ****    0 ROOT    
@<TRIPOS>MOLECULE
ZINC19826598_15
48   51    1
SMALL
USER_CHARGES


@<TRIPOS>ATOM
      1 C1         -5.5970  -11.8151   36.2228 C.ar      1 UNK        -0.1150 
      2 C2         -4.9204  -11.2435   35.1313 C.ar      1 UNK        -0.1150 
      3 C3         -5.6546  -11.1288   37.4499 C.ar      1 UNK        -0.1150 
      4 C4         -4.2998   -9.9882   35.2675 C.ar      1 UNK        -0.1150 
      5 C5         -7.0465   -3.9230   39.6047 C.ar      1 UNK        -0.1150 
      6 C6         -7.8468   -5.9395   38.4998 C.ar      1 UNK        -0.1150 
      7 C7         -7.0723   -5.3303   39.5101 C.ar      1 UNK         0.0000 
      8 C8         -5.0365   -9.8659   37.5985 C.ar      1 UNK         0.0044 
      9 C9         -4.3469   -9.2899   36.4940 C.ar      1 UNK        -0.1150 
     10 C10        -7.7803   -3.1204   38.6993 C.ar      1 UNK         0.0850 
     11 C11        -8.5788   -5.1583   37.5742 C.ar      1 UNK         0.0850 
     12 C12        -8.5360   -3.7489   37.6847 C.ar      1 UNK         0.0850 
     13 C13        -6.2920   -6.1291   40.4608 C.ar      1 UNK         0.4100 
     14 C14        -5.0708   -7.5889   41.3716 C.ar      1 UNK         0.5625 
     15 C15        -5.1506   -9.1949   38.9196 C.2       1 UNK         0.3492 
     16 C16        -4.7931   -9.9672   40.1909 C.3       1 UNK         0.0836 
     17 C17        -3.6400   -7.9444   36.5831 C.3       1 UNK        -0.0650 
     18 C18        -7.1030   -1.0862   39.7885 C.3       1 UNK         0.1100 
     19 C19        -9.3537   -7.1049   36.3901 C.3       1 UNK         0.1100 
     20 C20        -8.6217   -2.7944   35.5594 C.3       1 UNK         0.1100 
     21 N21        -6.1184   -5.7465   41.7344 N.2       1 UNK        -0.3633 
     22 N22        -5.3188   -6.7011   42.3295 N.2       1 UNK        -0.3633 
     23 N23        -5.5674   -7.9899   38.9817 N.2       1 UNK        -0.3897 
     24 N24        -5.6527   -7.2927   40.1941 N.pl3     1 UNK        -0.0934 
     25 O25        -7.7952   -1.7410   38.7360 O.3       1 UNK        -0.2850 
     26 O26        -9.3459   -5.6953   36.5601 O.3       1 UNK        -0.2850 
     27 O27        -9.2554   -2.9701   36.8150 O.3       1 UNK        -0.2850 
     28 S28        -4.0644   -9.0131   41.5561 S.3       1 UNK        -0.3200 
     29 H29        -6.0754  -12.7785   36.1168 H         1 UNK         0.1150 
     30 H30        -4.8764  -11.7675   34.1870 H         1 UNK         0.1150 
     31 H31        -6.1894  -11.5802   38.2733 H         1 UNK         0.1150 
     32 H32        -3.7825   -9.5640   34.4185 H         1 UNK         0.1150 
     33 H33        -6.4503   -3.4790   40.3873 H         1 UNK         0.1150 
     34 H34        -7.8749   -7.0156   38.4539 H         1 UNK         0.1150 
     35 H35        -5.7025  -10.4381   40.5643 H         1 UNK         0.0600 
     36 H36        -4.1045  -10.7742   39.9406 H         1 UNK         0.0600 
     37 H37        -4.3682   -7.1330   36.6170 H         1 UNK         0.0600 
     38 H38        -3.0162   -7.8873   37.4756 H         1 UNK         0.0600 
     39 H39        -2.9942   -7.7758   35.7212 H         1 UNK         0.0600 
     40 H40        -7.2429   -0.0094   39.6945 H         1 UNK         0.0300 
     41 H41        -6.0311   -1.2837   39.7457 H         1 UNK         0.0300 
     42 H42        -7.4879   -1.3842   40.7649 H         1 UNK         0.0300 
     43 H43        -9.9725   -7.3592   35.5296 H         1 UNK         0.0300 
     44 H44        -9.7771   -7.6084   37.2599 H         1 UNK         0.0300 
     45 H45        -8.3508   -7.4901   36.1995 H         1 UNK         0.0300 
     46 H46        -9.2427   -2.1632   34.9240 H         1 UNK         0.0300 
     47 H47        -8.4718   -3.7434   35.0431 H         1 UNK         0.0300 
     48 H48        -7.6544   -2.3039   35.6766 H         1 UNK         0.0300 
@<TRIPOS>BOND
     1    1    2 ar   
     2    1    3 ar   
     3    1   29 1    
     4    2    4 ar   
     5    2   30 1    
     6    3    8 ar   
     7    3   31 1    
     8    4    9 ar   
     9    4   32 1    
    10    5    7 ar   
    11    5   10 ar   
    12    5   33 1    
    13    6    7 ar   
    14    6   11 ar   
    15    6   34 1    
    16    7   13 1    
    17    8    9 ar   
    18    8   15 1    
    19    9   17 1    
    20   10   12 ar   
    21   10   25 1    
    22   11   12 ar   
    23   11   26 1    
    24   12   27 1    
    25   13   21 ar   
    26   13   24 ar   
    27   14   22 ar   
    28   14   24 ar   
    29   14   28 1    
    30   15   16 1    
    31   15   23 2    
    32   16   28 1    
    33   16   35 1    
    34   16   36 1    
    35   17   37 1    
    36   17   38 1    
    37   17   39 1    
    38   18   25 1    
    39   18   40 1    
    40   18   41 1    
    41   18   42 1    
    42   19   26 1    
    43   19   43 1    
    44   19   44 1    
    45   19   45 1    
    46   20   27 1    
    47   20   46 1    
    48   20   47 1    
    49   20   48 1    
    50   21   22 ar   
    51   23   24 1    
@<TRIPOS>SUBSTRUCTURE
     1 UNK         1 GROUP             0       ****    0 ROOT    
@<TRIPOS>MOLECULE
ZINC20664490_240
52   54    1
SMALL
USER_CHARGES


@<TRIPOS>ATOM
      1 C1         -6.3902  -14.4660   35.4904 C.ar      1 UNK        -0.1150 
      2 C2         -5.9704  -13.1282   35.3077 C.ar      1 UNK        -0.1150 
      3 C3         -6.8105  -14.9143   36.7604 C.ar      1 UNK        -0.1150 
      4 C4         -5.9643  -12.2217   36.3907 C.ar      1 UNK        -0.1150 
      5 C5         -7.7500   -5.6743   38.3100 C.ar      1 UNK        -0.1150 
      6 C6         -9.5732   -5.5285   39.9117 C.ar      1 UNK        -0.1150 
      7 C7         -8.2959   -6.0085   39.5678 C.ar      1 UNK        -0.1150 
      8 C8         -6.7986  -13.9982   37.8264 C.ar      1 UNK        -0.1150 
      9 C9         -6.3869  -12.6794   37.6587 C.ar      1 UNK        -0.0383 
     10 C10        -8.4758   -4.8883   37.3804 C.ar      1 UNK         0.0850 
     11 C11       -10.3154   -4.7317   39.0093 C.ar      1 UNK         0.0850 
     12 C12        -9.7639   -4.4022   37.7490 C.ar      1 UNK         0.0850 
     13 C13        -7.5267   -6.8370   40.5554 C.2       1 UNK         0.6150 
     14 C14        -6.1674  -10.6864   39.1272 C.2       1 UNK         0.5000 
     15 C15        -7.2037  -14.2666   39.2450 C.3       1 UNK        -0.0050 
     16 C16        -6.9666  -12.9061   39.9386 C.3       1 UNK        -0.0500 
     17 C17        -6.7350   -5.1427   35.7215 C.3       1 UNK         0.1100 
     18 C18       -12.1423   -4.5148   40.5629 C.3       1 UNK         0.1100 
     19 C19        -9.9428   -2.6643   36.0920 C.3       1 UNK         0.1100 
     20 C20        -6.3215  -10.1504   40.5652 C.3       1 UNK        -0.1200 
     21 C21        -5.8674   -8.6880   40.7723 C.3       1 UNK         0.0800 
     22 N22        -6.4740  -11.9882   38.8961 N.am      1 UNK        -0.0317 
     23 N23        -6.6909   -7.7385   40.0276 N.am      1 UNK        -0.5000 
     24 O24        -7.7175   -6.7269   41.7645 O.2       1 UNK        -0.5000 
     25 O25        -5.7804   -9.9098   38.2513 O.2       1 UNK        -0.5000 
     26 O26        -7.9840   -4.5982   36.1224 O.3       1 UNK        -0.2850 
     27 O27       -11.5713   -4.2335   39.2940 O.3       1 UNK        -0.2850 
     28 O28       -10.5625   -3.6261   36.9322 O.3       1 UNK        -0.2850 
     29 H29        -6.3896  -15.1485   34.6528 H         1 UNK         0.1150 
     30 H30        -5.6512  -12.7948   34.3310 H         1 UNK         0.1150 
     31 H31        -7.1325  -15.9351   36.9067 H         1 UNK         0.1150 
     32 H32        -5.6392  -11.2055   36.2265 H         1 UNK         0.1150 
     33 H33        -6.7615   -6.0321   38.0703 H         1 UNK         0.1150 
     34 H34        -9.9648   -5.7873   40.8839 H         1 UNK         0.1150 
     35 H35        -8.2503  -14.5702   39.2894 H         1 UNK         0.0600 
     36 H36        -6.5876  -15.0575   39.6744 H         1 UNK         0.0600 
     37 H37        -7.8952  -12.5344   40.3739 H         1 UNK         0.0600 
     38 H38        -6.2303  -13.0138   40.7358 H         1 UNK         0.0600 
     39 H39        -6.5276   -4.8414   34.6949 H         1 UNK         0.0300 
     40 H40        -6.7459   -6.2333   35.7477 H         1 UNK         0.0300 
     41 H41        -5.9198   -4.7709   36.3433 H         1 UNK         0.0300 
     42 H42       -13.1202   -4.0384   40.6292 H         1 UNK         0.0300 
     43 H43       -11.5283   -4.1197   41.3734 H         1 UNK         0.0300 
     44 H44       -12.2873   -5.5863   40.7061 H         1 UNK         0.0300 
     45 H45       -10.6478   -1.8565   35.8970 H         1 UNK         0.0300 
     46 H46        -9.6742   -3.0987   35.1289 H         1 UNK         0.0300 
     47 H47        -9.0573   -2.2221   36.5518 H         1 UNK         0.0300 
     48 H48        -5.7329  -10.7828   41.2298 H         1 UNK         0.0600 
     49 H49        -7.3625  -10.2504   40.8733 H         1 UNK         0.0600 
     50 H50        -5.8708   -8.4538   41.8385 H         1 UNK         0.0600 
     51 H51        -4.8332   -8.5699   40.4459 H         1 UNK         0.0600 
     52 H52        -6.6429   -7.8006   39.0200 H         1 UNK         0.3000 
@<TRIPOS>BOND
     1    1    2 ar   
     2    1    3 ar   
     3    1   29 1    
     4    2    4 ar   
     5    2   30 1    
     6    3    8 ar   
     7    3   31 1    
     8    4    9 ar   
     9    4   32 1    
    10    5    7 ar   
    11    5   10 ar   
    12    5   33 1    
    13    6    7 ar   
    14    6   11 ar   
    15    6   34 1    
    16    7   13 1    
    17    8    9 ar   
    18    8   15 1    
    19    9   22 1    
    20   10   12 ar   
    21   10   26 1    
    22   11   12 ar   
    23   11   27 1    
    24   12   28 1    
    25   13   23 am   BACKBONE|DICT|INTERRES
    26   13   24 2    
    27   14   20 1    
    28   14   22 am   BACKBONE|DICT|INTERRES
    29   14   25 2    
    30   15   16 1    
    31   15   35 1    
    32   15   36 1    
    33   16   22 1    
    34   16   37 1    
    35   16   38 1    
    36   17   26 1    
    37   17   39 1    
    38   17   40 1    
    39   17   41 1    
    40   18   27 1    
    41   18   42 1    
    42   18   43 1    
    43   18   44 1    
    44   19   28 1    
    45   19   45 1    
    46   19   46 1    
    47   19   47 1    
    48   20   21 1    
    49   20   48 1    
    50   20   49 1    
    51   21   23 1    
    52   21   50 1    
    53   21   51 1    
    54   23   52 1    
@<TRIPOS>SUBSTRUCTURE
     1 UNK         1 GROUP             0       ****    0 ROOT    
@<TRIPOS>MOLECULE
ZINC20745801_10
49   52    1
SMALL
USER_CHARGES


@<TRIPOS>ATOM
      1 C1         -6.1979  -12.0563   36.3302 C.ar      1 UNK        -0.3541 
      2 C2         -5.8233  -11.5191   35.0837 C.ar      1 UNK        -0.0888 
      3 C3         -5.2761   -9.3927   36.1582 C.ar      1 UNK        -0.2243 
      4 C4         -7.5040   -4.6070   39.7675 C.ar      1 UNK        -0.1150 
      5 C5         -8.0400   -6.6377   38.5450 C.ar      1 UNK        -0.1150 
      6 C6         -5.6441   -9.9022   37.4245 C.ar      1 UNK         0.1233 
      7 C7         -7.4836   -6.0101   39.6782 C.ar      1 UNK        -0.1150 
      8 C8         -5.6869   -9.3729   38.7587 C.ar      1 UNK        -0.1749 
      9 C9         -6.1083  -11.2530   37.4803 C.ar      1 UNK         0.2860 
     10 C10        -8.0211   -3.8253   38.7080 C.ar      1 UNK         0.0850 
     11 C11        -8.5542   -5.8826   37.4630 C.ar      1 UNK         0.0850 
     12 C12        -8.5231   -4.4590   37.5458 C.ar      1 UNK         0.0850 
     13 C13        -5.3648  -10.1901   35.0001 C.ar      1 UNK         0.1067 
     14 C14        -6.1520  -10.3696   39.5688 C.ar      1 UNK        -0.0293 
     15 C15        -6.9553   -6.8224   40.8277 C.2       1 UNK         0.6150 
     16 C16        -5.3357   -8.0183   39.3016 C.3       1 UNK         0.0059 
     17 C17        -6.3756  -10.2275   41.0414 C.3       1 UNK        -0.0050 
     18 C18        -5.7979   -8.8825   41.5537 C.3       1 UNK        -0.0500 
     19 C19        -7.6319   -1.7753   39.9108 C.3       1 UNK         0.1100 
     20 C20        -9.0647   -7.9025   36.2353 C.3       1 UNK         0.1100 
     21 C21        -8.9065   -4.0052   35.2045 C.3       1 UNK         0.1100 
     22 N22        -6.4068  -11.4956   38.8081 N.pl3     1 UNK        -0.4786 
     23 N23        -6.0542   -7.8048   40.5753 N.am      1 UNK        -0.1400 
     24 O24        -7.3751   -6.5826   41.9593 O.2       1 UNK        -0.5000 
     25 O25        -8.0543   -2.4454   38.7329 O.3       1 UNK        -0.2850 
     26 O26        -9.1083   -6.4869   36.3512 O.3       1 UNK        -0.2850 
     27 O27        -8.9909   -3.6066   36.5640 O.3       1 UNK        -0.2850 
     28 Cl28       -4.9127   -9.5331   33.4726 Cl        1 UNK        -0.1800 
     29 H29        -6.5507  -13.0742   36.3954 H         1 UNK         0.1796 
     30 H30        -5.8863  -12.1213   34.1882 H         1 UNK         0.1359 
     31 H31        -4.9253   -8.3757   36.0747 H         1 UNK         0.1699 
     32 H32        -7.1127   -4.1520   40.6651 H         1 UNK         0.1150 
     33 H33        -8.0619   -7.7166   38.5322 H         1 UNK         0.1150 
     34 H34        -4.2658   -7.9753   39.5081 H         1 UNK         0.0600 
     35 H35        -5.5035   -7.2390   38.5595 H         1 UNK         0.0600 
     36 H36        -7.4471  -10.2599   41.2437 H         1 UNK         0.0600 
     37 H37        -5.9277  -11.0613   41.5834 H         1 UNK         0.0600 
     38 H38        -6.1794   -8.6629   42.5523 H         1 UNK         0.0600 
     39 H39        -4.7169   -8.9748   41.6667 H         1 UNK         0.0600 
     40 H40        -7.7664   -0.7017   39.7798 H         1 UNK         0.0300 
     41 H41        -6.5748   -1.9521   40.1127 H         1 UNK         0.0300 
     42 H42        -8.2230   -2.0772   40.7765 H         1 UNK         0.0300 
     43 H43        -9.4983   -8.1971   35.2798 H         1 UNK         0.0300 
     44 H44        -9.6455   -8.3868   37.0212 H         1 UNK         0.0300 
     45 H45        -8.0399   -8.2748   36.2579 H         1 UNK         0.0300 
     46 H46        -8.8995   -3.1161   34.5746 H         1 UNK         0.0300 
     47 H47        -9.7730   -4.5993   34.9140 H         1 UNK         0.0300 
     48 H48        -7.9928   -4.5629   34.9936 H         1 UNK         0.0300 
     49 H49        -6.7604  -12.3610   39.1887 H         1 UNK         0.3577 
@<TRIPOS>BOND
     1    1    2 ar   
     2    1    9 ar   
     3    1   29 1    
     4    2   13 ar   
     5    2   30 1    
     6    3    6 ar   
     7    3   13 ar   
     8    3   31 1    
     9    4    7 ar   
    10    4   10 ar   
    11    4   32 1    
    12    5    7 ar   
    13    5   11 ar   
    14    5   33 1    
    15    6    8 ar   
    16    6    9 ar   
    17    7   15 1    
    18    8   14 ar   
    19    8   16 1    
    20    9   22 ar   
    21   10   12 ar   
    22   10   25 1    
    23   11   12 ar   
    24   11   26 1    
    25   12   27 1    
    26   13   28 1    
    27   14   17 1    
    28   14   22 ar   
    29   15   23 am   BACKBONE|DICT|INTERRES
    30   15   24 2    
    31   16   23 1    
    32   16   34 1    
    33   16   35 1    
    34   17   18 1    
    35   17   36 1    
    36   17   37 1    
    37   18   23 1    
    38   18   38 1    
    39   18   39 1    
    40   19   25 1    
    41   19   40 1    
    42   19   41 1    
    43   19   42 1    
    44   20   26 1    
    45   20   43 1    
    46   20   44 1    
    47   20   45 1    
    48   21   27 1    
    49   21   46 1    
    50   21   47 1    
    51   21   48 1    
    52   22   49 1    
@<TRIPOS>SUBSTRUCTURE
     1 UNK         1 GROUP             0       ****    0 ROOT    
@<TRIPOS>MOLECULE
ZINC21156219_24
42   44    1
SMALL
USER_CHARGES


@<TRIPOS>ATOM
      1 C1         -4.7432   -8.1145   36.7447 C.ar      1 UNK        -0.1150 
      2 C2         -5.2558   -7.3490   37.8161 C.ar      1 UNK        -0.1150 
      3 C3         -6.6459   -4.1237   39.4214 C.ar      1 UNK        -0.1150 
      4 C4         -8.0420   -6.0104   38.7648 C.ar      1 UNK        -0.1150 
      5 C5         -4.6727  -10.1202   38.1582 C.ar      1 UNK        -0.1150 
      6 C6         -7.0154   -5.4757   39.5726 C.ar      1 UNK        -0.1150 
      7 C7         -4.4567   -9.4936   36.9087 C.ar      1 UNK        -0.1150 
      8 C8         -5.4916   -8.0070   39.0436 C.ar      1 UNK         0.0850 
      9 C9         -5.1898   -9.3382   39.2039 C.ar      1 UNK         0.1350 
     10 C10        -7.2571   -3.3106   38.4373 C.ar      1 UNK         0.0850 
     11 C11        -8.6590   -5.2200   37.7668 C.ar      1 UNK         0.0850 
     12 C12        -8.2501   -3.8776   37.6016 C.ar      1 UNK         0.0850 
     13 C13        -5.9113   -8.6063   41.1786 C.2       1 UNK         0.7105 
     14 C14        -6.3577   -6.3145   40.6339 C.2       1 UNK         0.7455 
     15 C15        -3.9007  -10.2935   35.7482 C.3       1 UNK        -0.0650 
     16 C16        -6.0215   -1.3678   39.1407 C.3       1 UNK         0.1100 
     17 C17       -10.0918   -7.0255   37.0758 C.3       1 UNK         0.1100 
     18 C18        -8.0427   -2.8249   35.5196 C.3       1 UNK         0.1100 
     19 N19        -5.9640   -7.5676   40.2982 N.am      1 UNK        -0.3300 
     20 O20        -6.2621   -8.6305   42.3575 O.2       1 UNK        -0.5080 
     21 O21        -6.1106   -5.7836   41.7175 O.2       1 UNK        -0.5080 
     22 O22        -5.4474   -9.6974   40.4850 O.3       1 UNK        -0.2150 
     23 O23        -6.9426   -1.9801   38.2502 O.3       1 UNK        -0.2850 
     24 O24        -9.6425   -5.6882   36.9201 O.3       1 UNK        -0.2850 
     25 O25        -8.8671   -3.1243   36.6344 O.3       1 UNK        -0.2850 
     26 H26        -4.5633   -7.6343   35.7929 H         1 UNK         0.1150 
     27 H27        -5.4476   -6.2964   37.6711 H         1 UNK         0.1150 
     28 H28        -5.8849   -3.7313   40.0797 H         1 UNK         0.1150 
     29 H29        -8.3344   -7.0375   38.9204 H         1 UNK         0.1150 
     30 H30        -4.4435  -11.1645   38.3144 H         1 UNK         0.1150 
     31 H31        -2.8120  -10.2351   35.7368 H         1 UNK         0.0600 
     32 H32        -4.1864  -11.3432   35.8241 H         1 UNK         0.0600 
     33 H33        -4.2747   -9.9131   34.7969 H         1 UNK         0.0600 
     34 H34        -5.9185   -0.3142   38.8812 H         1 UNK         0.0300 
     35 H35        -5.0329   -1.8227   39.0671 H         1 UNK         0.0300 
     36 H36        -6.3693   -1.4196   40.1734 H         1 UNK         0.0300 
     37 H37       -10.8724   -7.2294   36.3429 H         1 UNK         0.0300 
     38 H38       -10.5189   -7.1902   38.0659 H         1 UNK         0.0300 
     39 H39        -9.2850   -7.7394   36.9048 H         1 UNK         0.0300 
     40 H40        -8.6433   -2.3490   34.7449 H         1 UNK         0.0300 
     41 H41        -7.6104   -3.7324   35.0956 H         1 UNK         0.0300 
     42 H42        -7.2343   -2.1408   35.7762 H         1 UNK         0.0300 
@<TRIPOS>BOND
     1    1    2 ar   
     2    1    7 ar   
     3    1   26 1    
     4    2    8 ar   
     5    2   27 1    
     6    3    6 ar   
     7    3   10 ar   
     8    3   28 1    
     9    4    6 ar   
    10    4   11 ar   
    11    4   29 1    
    12    5    7 ar   
    13    5    9 ar   
    14    5   30 1    
    15    6   14 1    
    16    7   15 1    
    17    8    9 ar   
    18    8   19 1    
    19    9   22 1    
    20   10   12 ar   
    21   10   23 1    
    22   11   12 ar   
    23   11   24 1    
    24   12   25 1    
    25   13   19 am   BACKBONE|DICT|INTERRES
    26   13   20 2    
    27   13   22 1    
    28   14   19 am   BACKBONE|DICT|INTERRES
    29   14   21 2    
    30   15   31 1    
    31   15   32 1    
    32   15   33 1    
    33   16   23 1    
    34   16   34 1    
    35   16   35 1    
    36   16   36 1    
    37   17   24 1    
    38   17   37 1    
    39   17   38 1    
    40   17   39 1    
    41   18   25 1    
    42   18   40 1    
    43   18   41 1    
    44   18   42 1    
@<TRIPOS>SUBSTRUCTURE
     1 UNK         1 GROUP             0       ****    0 ROOT    
@<TRIPOS>MOLECULE
ZINC21156239_26
39   41    1
SMALL
USER_CHARGES


@<TRIPOS>ATOM
      1 C1         -5.1315   -7.2831   37.8516 C.ar      1 UNK        -0.1150 
      2 C2         -4.5633   -8.0182   36.7863 C.ar      1 UNK        -0.1150 
      3 C3         -6.6688   -4.1344   39.4389 C.ar      1 UNK        -0.1150 
      4 C4         -7.9997   -6.0494   38.7295 C.ar      1 UNK        -0.1150 
      5 C5         -4.5051  -10.0504   38.1619 C.ar      1 UNK        -0.1150 
      6 C6         -7.0104   -5.4958   39.5706 C.ar      1 UNK        -0.1150 
      7 C7         -5.3988   -7.9711   39.0566 C.ar      1 UNK         0.0850 
      8 C8         -5.0755   -9.2996   39.2030 C.ar      1 UNK         0.1350 
      9 C9         -7.2689   -3.3302   38.4408 C.ar      1 UNK         0.0850 
     10 C10        -8.6060   -5.2671   37.7188 C.ar      1 UNK         0.0850 
     11 C11        -8.2235   -3.9148   37.5736 C.ar      1 UNK         0.0850 
     12 C12        -4.2557   -9.3922   36.9375 C.ar      1 UNK         0.1800 
     13 C13        -5.8800   -8.6176   41.1659 C.2       1 UNK         0.7105 
     14 C14        -6.3618   -6.3281   40.6421 C.2       1 UNK         0.7455 
     15 C15        -6.1045   -1.3618   39.1922 C.3       1 UNK         0.1100 
     16 C16        -9.9976   -7.0920   36.9934 C.3       1 UNK         0.1100 
     17 C17        -7.9873   -2.8635   35.4953 C.3       1 UNK         0.1100 
     18 N18        -5.9248   -7.5656   40.3011 N.am      1 UNK        -0.3300 
     19 O19        -6.2685   -8.6693   42.3315 O.2       1 UNK        -0.5080 
     20 O20        -6.1571   -5.8049   41.7377 O.2       1 UNK        -0.5080 
     21 O21        -5.3709   -9.6872   40.4683 O.3       1 UNK        -0.2150 
     22 O22        -6.9783   -1.9925   38.2675 O.3       1 UNK        -0.2850 
     23 O23        -9.5535   -5.7525   36.8412 O.3       1 UNK        -0.2850 
     24 O24        -8.8296   -3.1679   36.5950 O.3       1 UNK        -0.2850 
     25 Cl25       -3.5608  -10.2634   35.6226 Cl        1 UNK        -0.1800 
     26 H26        -5.3390   -6.2315   37.7194 H         1 UNK         0.1150 
     27 H27        -4.3544   -7.5266   35.8466 H         1 UNK         0.1150 
     28 H28        -5.9373   -3.7280   40.1217 H         1 UNK         0.1150 
     29 H29        -8.2729   -7.0840   38.8705 H         1 UNK         0.1150 
     30 H30        -4.2579  -11.0934   38.2952 H         1 UNK         0.1150 
     31 H31        -6.0204   -0.3043   38.9422 H         1 UNK         0.0300 
     32 H32        -5.1021   -1.7901   39.1504 H         1 UNK         0.0300 
     33 H33        -6.4859   -1.4292   40.2120 H         1 UNK         0.0300 
     34 H34       -10.7616   -7.3036   36.2453 H         1 UNK         0.0300 
     35 H35       -10.4445   -7.2552   37.9749 H         1 UNK         0.0300 
     36 H36        -9.1832   -7.8017   36.8423 H         1 UNK         0.0300 
     37 H37        -8.5661   -2.3486   34.7287 H         1 UNK         0.0300 
     38 H38        -7.5807   -3.7733   35.0515 H         1 UNK         0.0300 
     39 H39        -7.1593   -2.2131   35.7765 H         1 UNK         0.0300 
@<TRIPOS>BOND
     1    1    2 ar   
     2    1    7 ar   
     3    1   26 1    
     4    2   12 ar   
     5    2   27 1    
     6    3    6 ar   
     7    3    9 ar   
     8    3   28 1    
     9    4    6 ar   
    10    4   10 ar   
    11    4   29 1    
    12    5    8 ar   
    13    5   12 ar   
    14    5   30 1    
    15    6   14 1    
    16    7    8 ar   
    17    7   18 1    
    18    8   21 1    
    19    9   11 ar   
    20    9   22 1    
    21   10   11 ar   
    22   10   23 1    
    23   11   24 1    
    24   12   25 1    
    25   13   18 am   BACKBONE|DICT|INTERRES
    26   13   19 2    
    27   13   21 1    
    28   14   18 am   BACKBONE|DICT|INTERRES
    29   14   20 2    
    30   15   22 1    
    31   15   31 1    
    32   15   32 1    
    33   15   33 1    
    34   16   23 1    
    35   16   34 1    
    36   16   35 1    
    37   16   36 1    
    38   17   24 1    
    39   17   37 1    
    40   17   38 1    
    41   17   39 1    
@<TRIPOS>SUBSTRUCTURE
     1 UNK         1 GROUP             0       ****    0 ROOT    
@<TRIPOS>MOLECULE
ZINC21156242_27
39   41    1
SMALL
USER_CHARGES


@<TRIPOS>ATOM
      1 C1         -5.1372   -7.2810   37.8500 C.ar      1 UNK        -0.1150 
      2 C2         -4.5685   -8.0152   36.7842 C.ar      1 UNK        -0.1150 
      3 C3         -6.6684   -4.1339   39.4378 C.ar      1 UNK        -0.1150 
      4 C4         -8.0050   -6.0465   38.7326 C.ar      1 UNK        -0.1150 
      5 C5         -4.5063  -10.0476   38.1595 C.ar      1 UNK        -0.1150 
      6 C6         -7.0130   -5.4943   39.5715 C.ar      1 UNK        -0.1150 
      7 C7         -5.4022   -7.9694   39.0552 C.ar      1 UNK         0.0850 
      8 C8         -5.0770   -9.2974   39.2010 C.ar      1 UNK         0.1350 
      9 C9         -7.2681   -3.3293   38.4398 C.ar      1 UNK         0.0850 
     10 C10        -8.6110   -5.2638   37.7221 C.ar      1 UNK         0.0850 
     11 C11        -8.2254   -3.9127   37.5744 C.ar      1 UNK         0.0850 
     12 C12        -4.2588   -9.3887   36.9352 C.ar      1 UNK         0.2000 
     13 C13        -5.8811   -8.6168   41.1645 C.2       1 UNK         0.7105 
     14 C14        -6.3637   -6.3271   40.6423 C.2       1 UNK         0.7455 
     15 C15        -6.1005   -1.3624   39.1897 C.3       1 UNK         0.1100 
     16 C16       -10.0091   -7.0856   37.0010 C.3       1 UNK         0.1100 
     17 C17        -7.9888   -2.8612   35.4954 C.3       1 UNK         0.1100 
     18 N18        -5.9273   -7.5644   40.3002 N.am      1 UNK        -0.3300 
     19 O19        -6.2694   -8.6696   42.3299 O.2       1 UNK        -0.5080 
     20 O20        -6.1574   -5.8041   41.7376 O.2       1 UNK        -0.5080 
     21 O21        -5.3712   -9.6856   40.4663 O.3       1 UNK        -0.2150 
     22 O22        -6.9743   -1.9926   38.2646 O.3       1 UNK        -0.2850 
     23 O23        -9.5608   -5.7477   36.8466 O.3       1 UNK        -0.2850 
     24 O24        -8.8310   -3.1662   36.5952 O.3       1 UNK        -0.2850 
     25 Br25       -3.4913  -10.3478   35.4840 Br        1 UNK        -0.2000 
     26 H26        -5.3468   -6.2299   37.7180 H         1 UNK         0.1150 
     27 H27        -4.3601   -7.5241   35.8445 H         1 UNK         0.1150 
     28 H28        -5.9340   -3.7291   40.1187 H         1 UNK         0.1150 
     29 H29        -8.2809   -7.0803   38.8749 H         1 UNK         0.1150 
     30 H30        -4.2577  -11.0903   38.2912 H         1 UNK         0.1150 
     31 H31        -6.0135   -0.3056   38.9377 H         1 UNK         0.0300 
     32 H32        -5.0990   -1.7929   39.1503 H         1 UNK         0.0300 
     33 H33        -6.4839   -1.4270   40.2090 H         1 UNK         0.0300 
     34 H34       -10.7744   -7.2953   36.2537 H         1 UNK         0.0300 
     35 H35       -10.4563   -7.2457   37.9832 H         1 UNK         0.0300 
     36 H36        -9.1976   -7.7985   36.8497 H         1 UNK         0.0300 
     37 H37        -8.5714   -2.3596   34.7230 H         1 UNK         0.0300 
     38 H38        -7.5693   -3.7689   35.0592 H         1 UNK         0.0300 
     39 H39        -7.1703   -2.1979   35.7738 H         1 UNK         0.0300 
@<TRIPOS>BOND
     1    1    2 ar   
     2    1    7 ar   
     3    1   26 1    
     4    2   12 ar   
     5    2   27 1    
     6    3    6 ar   
     7    3    9 ar   
     8    3   28 1    
     9    4    6 ar   
    10    4   10 ar   
    11    4   29 1    
    12    5    8 ar   
    13    5   12 ar   
    14    5   30 1    
    15    6   14 1    
    16    7    8 ar   
    17    7   18 1    
    18    8   21 1    
    19    9   11 ar   
    20    9   22 1    
    21   10   11 ar   
    22   10   23 1    
    23   11   24 1    
    24   12   25 1    
    25   13   18 am   BACKBONE|DICT|INTERRES
    26   13   19 2    
    27   13   21 1    
    28   14   18 am   BACKBONE|DICT|INTERRES
    29   14   20 2    
    30   15   22 1    
    31   15   31 1    
    32   15   32 1    
    33   15   33 1    
    34   16   23 1    
    35   16   34 1    
    36   16   35 1    
    37   16   36 1    
    38   17   24 1    
    39   17   37 1    
    40   17   38 1    
    41   17   39 1    
@<TRIPOS>SUBSTRUCTURE
     1 UNK         1 GROUP             0       ****    0 ROOT    
@<TRIPOS>MOLECULE
ZINC21279525_111
43   44    1
SMALL
USER_CHARGES


@<TRIPOS>ATOM
      1 C1         -5.8607  -10.0802   38.5440 C.ar      1 UNK        -0.1150 
      2 C2         -4.0172  -10.1744   40.1383 C.ar      1 UNK        -0.1150 
      3 C3         -5.1602  -10.9484   37.6830 C.ar      1 UNK        -0.1150 
      4 C4         -3.3183  -11.0433   39.2765 C.ar      1 UNK        -0.1150 
      5 C5         -8.1036   -5.9885   38.3712 C.ar      1 UNK        -0.1150 
      6 C6         -7.0798   -4.1099   39.5368 C.ar      1 UNK        -0.1150 
      7 C7         -7.2232   -5.5038   39.3664 C.ar      1 UNK        -0.1150 
      8 C8         -5.2893   -9.6844   39.7735 C.ar      1 UNK        -0.0418 
      9 C9         -8.8342   -5.0964   37.5497 C.ar      1 UNK         0.0850 
     10 C10        -7.8005   -3.1998   38.7275 C.ar      1 UNK         0.0850 
     11 C11        -8.6662   -3.7034   37.7322 C.ar      1 UNK         0.0850 
     12 C12        -3.8890  -11.4292   38.0491 C.ar      1 UNK         0.2200 
     13 C13        -6.4429   -6.4243   40.2420 C.2       1 UNK         0.6250 
     14 C14        -7.0974   -9.5295   41.5270 C.3       1 UNK        -0.1800 
     15 C15        -9.9385   -6.9008   36.3982 C.3       1 UNK         0.1100 
     16 C16        -6.8679   -1.2910   39.8566 C.3       1 UNK         0.1100 
     17 C17        -8.8667   -2.6878   35.6379 C.3       1 UNK         0.1100 
     18 C18        -6.0457   -8.7615   40.7163 C.3       1 UNK         0.2618 
     19 O19        -5.6463   -6.0324   41.0960 O.2       1 UNK        -0.4300 
     20 O20        -9.7186   -5.5097   36.5736 O.3       1 UNK        -0.2850 
     21 O21        -7.7031   -1.8280   38.8422 O.3       1 UNK        -0.2850 
     22 O22        -9.3662   -2.8117   36.9594 O.3       1 UNK        -0.2850 
     23 O23        -6.7084   -7.7259   40.0006 O.3       1 UNK        -0.3300 
     24 F24        -3.2176  -12.2644   37.2230 F         1 UNK        -0.2200 
     25 H25        -6.8374   -9.7171   38.2589 H         1 UNK         0.1150 
     26 H26        -3.5727   -9.8845   41.0794 H         1 UNK         0.1150 
     27 H27        -5.5935  -11.2497   36.7407 H         1 UNK         0.1150 
     28 H28        -2.3439  -11.4177   39.5532 H         1 UNK         0.1150 
     29 H29        -8.2143   -7.0535   38.2460 H         1 UNK         0.1150 
     30 H30        -6.4055   -3.7544   40.3012 H         1 UNK         0.1150 
     31 H31        -7.8466   -9.9832   40.8777 H         1 UNK         0.0600 
     32 H32        -7.6136   -8.8670   42.2221 H         1 UNK         0.0600 
     33 H33        -6.6353  -10.3260   42.1107 H         1 UNK         0.0600 
     34 H34       -10.6726   -7.0503   35.6065 H         1 UNK         0.0300 
     35 H35       -10.3350   -7.3597   37.3049 H         1 UNK         0.0300 
     36 H36        -9.0236   -7.4145   36.1001 H         1 UNK         0.0300 
     37 H37        -6.9204   -0.2027   39.8253 H         1 UNK         0.0300 
     38 H38        -5.8255   -1.5743   39.7063 H         1 UNK         0.0300 
     39 H39        -7.1906   -1.6073   40.8495 H         1 UNK         0.0300 
     40 H40        -9.3949   -1.8839   35.1256 H         1 UNK         0.0300 
     41 H41        -9.0099   -3.6006   35.0595 H         1 UNK         0.0300 
     42 H42        -7.8042   -2.4398   35.6409 H         1 UNK         0.0300 
     43 H43        -5.3173   -8.3502   41.4166 H         1 UNK         0.0300 
@<TRIPOS>BOND
     1    1    3 ar   
     2    1    8 ar   
     3    1   25 1    
     4    2    4 ar   
     5    2    8 ar   
     6    2   26 1    
     7    3   12 ar   
     8    3   27 1    
     9    4   12 ar   
    10    4   28 1    
    11    5    7 ar   
    12    5    9 ar   
    13    5   29 1    
    14    6    7 ar   
    15    6   10 ar   
    16    6   30 1    
    17    7   13 1    
    18    8   18 1    
    19    9   11 ar   
    20    9   20 1    
    21   10   11 ar   
    22   10   21 1    
    23   11   22 1    
    24   12   24 1    
    25   13   19 2    
    26   13   23 1    
    27   14   18 1    
    28   14   31 1    
    29   14   32 1    
    30   14   33 1    
    31   15   20 1    
    32   15   34 1    
    33   15   35 1    
    34   15   36 1    
    35   16   21 1    
    36   16   37 1    
    37   16   38 1    
    38   16   39 1    
    39   17   22 1    
    40   17   40 1    
    41   17   41 1    
    42   17   42 1    
    43   18   23 1    
    44   18   43 1    
@<TRIPOS>SUBSTRUCTURE
     1 UNK         1 GROUP             0       ****    0 ROOT    
@<TRIPOS>MOLECULE
ZINC21538564_280
41   43    1
SMALL
USER_CHARGES


@<TRIPOS>ATOM
      1 C1         -9.1208   -7.0929   38.8518 C.ar      1 UNK        -0.1150 
      2 C2         -9.7575   -6.0657   38.1319 C.ar      1 UNK        -0.1150 
      3 C3        -10.9428   -8.6063   38.3004 C.ar      1 UNK        -0.1150 
      4 C4         -9.7062   -8.3726   38.9462 C.ar      1 UNK        -0.1150 
      5 C5        -10.9965   -6.2991   37.4867 C.ar      1 UNK         0.0850 
      6 C6        -11.5916   -7.5786   37.5706 C.ar      1 UNK         0.0850 
      7 C7         -6.8710  -12.6718   39.9971 C.ar      1 UNK        -0.1717 
      8 C8         -5.5489  -14.1645   36.8855 C.2       1 UNK        -0.1882 
      9 C9         -8.1241  -12.4114   39.5578 C.ar      1 UNK         0.0535 
     10 C10        -6.1586  -14.3569   35.7139 C.2       1 UNK         0.0075 
     11 C11        -5.8892  -13.3050   39.1202 C.ar      1 UNK         0.5567 
     12 C12        -7.6499  -13.2789   37.4504 C.ar      1 UNK         0.4890 
     13 C13        -9.0042   -9.4397   39.7155 C.2       1 UNK         0.6250 
     14 C14        -5.5539  -14.9717   34.4715 C.3       1 UNK        -0.1800 
     15 C15       -11.1055   -4.0417   36.6621 C.3       1 UNK         0.1100 
     16 C16       -13.4209   -9.0231   36.9670 C.3       1 UNK         0.1100 
     17 C17        -9.1515  -11.7196   40.4372 C.3       1 UNK         0.2590 
     18 N18        -8.5099  -12.7331   38.2507 N.2       1 UNK        -0.4815 
     19 N19        -6.3414  -13.5714   37.8644 N.pl3     1 UNK        -0.0493 
     20 O20        -4.7463  -13.5791   39.4905 O.2       1 UNK        -0.5000 
     21 O21        -7.8956   -9.2872   40.2324 O.2       1 UNK        -0.4300 
     22 O22       -11.6738   -5.3380   36.7645 O.3       1 UNK        -0.2850 
     23 O23       -12.7964   -7.7494   36.9196 O.3       1 UNK        -0.2850 
     24 O24        -9.7094  -10.5839   39.7943 O.3       1 UNK        -0.3300 
     25 S25        -7.8252  -13.8024   35.7124 S.3       1 UNK        -0.0150 
     26 H26        -8.1746   -6.8917   39.3352 H         1 UNK         0.1150 
     27 H27        -9.2712   -5.1039   38.0900 H         1 UNK         0.1150 
     28 H28       -11.3870   -9.5866   38.3676 H         1 UNK         0.1150 
     29 H29        -6.5736  -12.3995   40.9992 H         1 UNK         0.1150 
     30 H30        -4.5280  -14.4152   37.1424 H         1 UNK         0.1150 
     31 H31        -6.3298  -15.3832   33.8252 H         1 UNK         0.0600 
     32 H32        -4.8683  -15.7772   34.7364 H         1 UNK         0.0600 
     33 H33        -5.0008  -14.2195   33.9088 H         1 UNK         0.0600 
     34 H34       -11.7615   -3.4091   36.0644 H         1 UNK         0.0300 
     35 H35       -10.1344   -4.0699   36.1663 H         1 UNK         0.0300 
     36 H36       -11.0001   -3.5741   37.6419 H         1 UNK         0.0300 
     37 H37       -14.3518   -8.9869   36.4015 H         1 UNK         0.0300 
     38 H38       -13.6685   -9.3082   37.9903 H         1 UNK         0.0300 
     39 H39       -12.7923   -9.7925   36.5167 H         1 UNK         0.0300 
     40 H40        -8.7114  -11.4405   41.3961 H         1 UNK         0.0300 
     41 H41        -9.9546  -12.4245   40.6525 H         1 UNK         0.0300 
@<TRIPOS>BOND
     1    1    2 ar   
     2    1    4 ar   
     3    1   26 1    
     4    2    5 ar   
     5    2   27 1    
     6    3    4 ar   
     7    3    6 ar   
     8    3   28 1    
     9    4   13 1    
    10    5    6 ar   
    11    5   22 1    
    12    6   23 1    
    13    7    9 ar   
    14    7   11 ar   
    15    7   29 1    
    16    8   10 2    
    17    8   19 1    
    18    8   30 1    
    19    9   17 1    
    20    9   18 ar   
    21   10   14 1    
    22   10   25 1    
    23   11   19 ar   
    24   11   20 2    
    25   12   18 ar   
    26   12   19 ar   
    27   12   25 1    
    28   13   21 2    
    29   13   24 1    
    30   14   31 1    
    31   14   32 1    
    32   14   33 1    
    33   15   22 1    
    34   15   34 1    
    35   15   35 1    
    36   15   36 1    
    37   16   23 1    
    38   16   37 1    
    39   16   38 1    
    40   16   39 1    
    41   17   24 1    
    42   17   40 1    
    43   17   41 1    
@<TRIPOS>SUBSTRUCTURE
     1 UNK         1 GROUP             0       ****    0 ROOT    
@<TRIPOS>MOLECULE
ZINC21906226_141
46   48    1
SMALL
USER_CHARGES


@<TRIPOS>ATOM
      1 C1         -6.7804   -3.5367   39.7283 C.ar      1 UNK        -0.1150 
      2 C2         -7.1225   -5.2006   37.9900 C.ar      1 UNK        -0.1150 
      3 C3         -4.2293   -9.0283   37.7009 C.ar      1 UNK        -0.1150 
      4 C4         -4.6583  -10.4109   39.6619 C.ar      1 UNK        -0.1150 
      5 C5         -6.5138   -4.8174   39.2057 C.ar      1 UNK        -0.1150 
      6 C6         -4.4992   -9.1370   39.0806 C.ar      1 UNK        -0.0418 
      7 C7         -4.1283  -10.1819   36.9007 C.ar      1 UNK         0.0850 
      8 C8         -4.3220  -11.4638   37.4812 C.ar      1 UNK         0.0850 
      9 C9         -7.6350   -2.6381   39.0481 C.ar      1 UNK         0.0850 
     10 C10        -7.9896   -4.3241   37.2906 C.ar      1 UNK         0.0850 
     11 C11        -8.2282   -3.0237   37.8233 C.ar      1 UNK         0.0850 
     12 C12        -4.5718  -11.5698   38.8668 C.ar      1 UNK         0.1800 
     13 C13        -5.6059   -5.7317   39.9554 C.2       1 UNK         0.6250 
     14 C14        -3.4324  -11.2293   34.9089 C.3       1 UNK         0.1400 
     15 C15        -4.3611  -12.3845   35.3113 C.3       1 UNK         0.1400 
     16 C16        -7.3470   -0.9428   40.7357 C.3       1 UNK         0.1100 
     17 C17        -8.4285   -6.0118   35.6137 C.3       1 UNK         0.1100 
     18 C18        -9.1299   -2.0203   35.8230 C.3       1 UNK         0.1100 
     19 C19        -4.5926   -7.8905   39.9373 C.3       1 UNK         0.2318 
     20 O20        -5.0695   -5.4353   41.0239 O.2       1 UNK        -0.4300 
     21 O21        -3.8473  -10.0339   35.5613 O.3       1 UNK        -0.2850 
     22 O22        -4.2642  -12.6063   36.7130 O.3       1 UNK        -0.2850 
     23 O23        -7.9261   -1.3706   39.5124 O.3       1 UNK        -0.2850 
     24 O24        -8.6296   -4.7021   36.1260 O.3       1 UNK        -0.2850 
     25 O25        -9.0494   -2.0789   37.2388 O.3       1 UNK        -0.2850 
     26 O26        -5.4303   -6.9145   39.3436 O.3       1 UNK        -0.3300 
     27 Cl27       -4.7888  -13.1172   39.6018 Cl        1 UNK        -0.1800 
     28 H28        -6.3146   -3.2589   40.6617 H         1 UNK         0.1150 
     29 H29        -6.9220   -6.1875   37.6048 H         1 UNK         0.1150 
     30 H30        -4.0914   -8.0552   37.2516 H         1 UNK         0.1150 
     31 H31        -4.8564  -10.5079   40.7194 H         1 UNK         0.1150 
     32 H32        -2.3979  -11.4546   35.1719 H         1 UNK         0.0300 
     33 H33        -3.4649  -11.0732   33.8305 H         1 UNK         0.0300 
     34 H34        -5.3950  -12.1637   35.0415 H         1 UNK         0.0300 
     35 H35        -4.0793  -13.2990   34.7892 H         1 UNK         0.0300 
     36 H36        -7.6772    0.0732   40.9519 H         1 UNK         0.0300 
     37 H37        -6.2579   -0.9293   40.6784 H         1 UNK         0.0300 
     38 H38        -7.6596   -1.5746   41.5681 H         1 UNK         0.0300 
     39 H39        -9.0233   -6.1367   34.7090 H         1 UNK         0.0300 
     40 H40        -8.7512   -6.7739   36.3245 H         1 UNK         0.0300 
     41 H41        -7.3845   -6.1805   35.3459 H         1 UNK         0.0300 
     42 H42        -9.4242   -1.0140   35.5257 H         1 UNK         0.0300 
     43 H43        -9.8901   -2.7033   35.4434 H         1 UNK         0.0300 
     44 H44        -8.1731   -2.2368   35.3455 H         1 UNK         0.0300 
     45 H45        -4.9778   -8.1509   40.9246 H         1 UNK         0.0300 
     46 H46        -3.5897   -7.4836   40.0757 H         1 UNK         0.0300 
@<TRIPOS>BOND
     1    1    5 ar   
     2    1    9 ar   
     3    1   28 1    
     4    2    5 ar   
     5    2   10 ar   
     6    2   29 1    
     7    3    6 ar   
     8    3    7 ar   
     9    3   30 1    
    10    4    6 ar   
    11    4   12 ar   
    12    4   31 1    
    13    5   13 1    
    14    6   19 1    
    15    7    8 ar   
    16    7   21 1    
    17    8   12 ar   
    18    8   22 1    
    19    9   11 ar   
    20    9   23 1    
    21   10   11 ar   
    22   10   24 1    
    23   11   25 1    
    24   12   27 1    
    25   13   20 2    
    26   13   26 1    
    27   14   15 1    
    28   14   21 1    
    29   14   32 1    
    30   14   33 1    
    31   15   22 1    
    32   15   34 1    
    33   15   35 1    
    34   16   23 1    
    35   16   36 1    
    36   16   37 1    
    37   16   38 1    
    38   17   24 1    
    39   17   39 1    
    40   17   40 1    
    41   17   41 1    
    42   18   25 1    
    43   18   42 1    
    44   18   43 1    
    45   18   44 1    
    46   19   26 1    
    47   19   45 1    
    48   19   46 1    
@<TRIPOS>SUBSTRUCTURE
     1 UNK         1 GROUP             0       ****    0 ROOT    
@<TRIPOS>MOLECULE
ZINC22344763_14
48   50    1
SMALL
USER_CHARGES


@<TRIPOS>ATOM
      1 C1        -10.6057  -16.9449   35.0188 C.ar      1 UNK        -0.1150 
      2 C2        -10.1258  -17.5797   36.1805 C.ar      1 UNK        -0.1150 
      3 C3        -11.5452  -15.9016   35.1253 C.ar      1 UNK        -0.1150 
      4 C4        -10.5863  -17.1728   37.4483 C.ar      1 UNK        -0.1150 
      5 C5        -12.0053  -15.4950   36.3928 C.ar      1 UNK        -0.1150 
      6 C6        -14.1096  -12.6460   38.7465 C.ar      1 UNK        -0.1150 
      7 C7        -12.9401  -10.6659   39.5504 C.ar      1 UNK        -0.1150 
      8 C8        -13.2566  -12.0307   39.6856 C.ar      1 UNK        -0.1150 
      9 C9        -11.5325  -16.1311   37.5612 C.ar      1 UNK        -0.0418 
     10 C10       -14.2574  -10.5570   37.4996 C.ar      1 UNK        -0.1150 
     11 C11       -14.6082  -11.9211   37.6392 C.ar      1 UNK         0.0850 
     12 C12       -13.4281   -9.9178   38.4524 C.ar      1 UNK         0.0850 
     13 C13       -12.7218  -12.8054   40.8540 C.2       1 UNK         0.6150 
     14 C14       -11.6127  -14.8707   41.6444 C.3       1 UNK        -0.0500 
     15 C15       -11.4195  -14.3100   39.3089 C.3       1 UNK        -0.0500 
     16 C16       -12.2059  -16.2322   41.2451 C.3       1 UNK         0.1400 
     17 C17       -12.0299  -15.6707   38.9225 C.3       1 UNK         0.2118 
     18 C18       -14.7811   -9.7633   36.3122 C.3       1 UNK        -0.0650 
     19 C19       -15.9000  -13.8026   36.8687 C.3       1 UNK         0.1100 
     20 C20       -12.3738   -7.9027   39.2390 C.3       1 UNK         0.1100 
     21 N21       -11.9696  -13.9033   40.6058 N.am      1 UNK        -0.1400 
     22 O22       -12.9929  -12.4254   41.9915 O.2       1 UNK        -0.5000 
     23 O23       -11.7212  -16.6078   39.9568 O.3       1 UNK        -0.4000 
     24 O24       -15.4209  -12.4797   36.6740 O.3       1 UNK        -0.2850 
     25 O25       -13.1313   -8.5853   38.2511 O.3       1 UNK        -0.2850 
     26 H26       -10.2518  -17.2573   34.0469 H         1 UNK         0.1150 
     27 H27        -9.4036  -18.3793   36.1010 H         1 UNK         0.1150 
     28 H28       -11.9113  -15.4114   34.2347 H         1 UNK         0.1150 
     29 H29       -10.2114  -17.6641   38.3347 H         1 UNK         0.1150 
     30 H30       -12.7197  -14.6877   36.4652 H         1 UNK         0.1150 
     31 H31       -14.3686  -13.6818   38.8964 H         1 UNK         0.1150 
     32 H32       -12.3077  -10.2182   40.3023 H         1 UNK         0.1150 
     33 H33       -11.9825  -14.5857   42.6309 H         1 UNK         0.0600 
     34 H34       -10.5275  -14.9365   41.7305 H         1 UNK         0.0600 
     35 H35       -10.3355  -14.4017   39.3907 H         1 UNK         0.0600 
     36 H36       -11.5849  -13.5736   38.5231 H         1 UNK         0.0600 
     37 H37       -11.9186  -16.9964   41.9675 H         1 UNK         0.0300 
     38 H38       -13.2965  -16.1950   41.2372 H         1 UNK         0.0300 
     39 H39       -13.1155  -15.5903   38.8534 H         1 UNK         0.0300 
     40 H40       -14.9442   -8.7180   36.5737 H         1 UNK         0.0600 
     41 H41       -14.0637   -9.8040   35.4933 H         1 UNK         0.0600 
     42 H42       -15.7333  -10.1536   35.9543 H         1 UNK         0.0600 
     43 H43       -16.5706  -14.0647   36.0504 H         1 UNK         0.0300 
     44 H44       -16.4654  -13.8893   37.7976 H         1 UNK         0.0300 
     45 H45       -15.0866  -14.5284   36.8710 H         1 UNK         0.0300 
     46 H46       -11.3707   -8.3204   39.3318 H         1 UNK         0.0300 
     47 H47       -12.8692   -7.9285   40.2105 H         1 UNK         0.0300 
     48 H48       -12.2686   -6.8568   38.9512 H         1 UNK         0.0300 
@<TRIPOS>BOND
     1    1    2 ar   
     2    1    3 ar   
     3    1   26 1    
     4    2    4 ar   
     5    2   27 1    
     6    3    5 ar   
     7    3   28 1    
     8    4    9 ar   
     9    4   29 1    
    10    5    9 ar   
    11    5   30 1    
    12    6    8 ar   
    13    6   11 ar   
    14    6   31 1    
    15    7    8 ar   
    16    7   12 ar   
    17    7   32 1    
    18    8   13 1    
    19    9   17 1    
    20   10   11 ar   
    21   10   12 ar   
    22   10   18 1    
    23   11   24 1    
    24   12   25 1    
    25   13   21 am   BACKBONE|DICT|INTERRES
    26   13   22 2    
    27   14   16 1    
    28   14   21 1    
    29   14   33 1    
    30   14   34 1    
    31   15   17 1    
    32   15   21 1    
    33   15   35 1    
    34   15   36 1    
    35   16   23 1    
    36   16   37 1    
    37   16   38 1    
    38   17   23 1    
    39   17   39 1    
    40   18   40 1    
    41   18   41 1    
    42   18   42 1    
    43   19   24 1    
    44   19   43 1    
    45   19   44 1    
    46   19   45 1    
    47   20   25 1    
    48   20   46 1    
    49   20   47 1    
    50   20   48 1    
@<TRIPOS>SUBSTRUCTURE
     1 UNK         1 GROUP             0       ****    0 ROOT    
@<TRIPOS>MOLECULE
ZINC22351934_221
46   48    1
SMALL
USER_CHARGES


@<TRIPOS>ATOM
      1 C1        -13.5077  -18.6274   36.8316 C.ar      1 UNK        -0.1150 
      2 C2        -13.2794  -18.2051   35.5021 C.ar      1 UNK        -0.1150 
      3 C3        -15.1890  -14.4884   38.9440 C.ar      1 UNK        -0.1150 
      4 C4        -13.7332  -12.5566   39.1607 C.ar      1 UNK        -0.1150 
      5 C5        -11.2334  -17.0374   36.1874 C.ar      1 UNK        -0.1150 
      6 C6        -14.0253  -13.8963   39.4795 C.ar      1 UNK        -0.1150 
      7 C7        -11.4839  -17.4704   37.5012 C.ar      1 UNK        -0.1150 
      8 C8        -12.5876  -18.2417   37.8210 C.ar      1 UNK         0.0850 
      9 C9        -16.0336  -13.7789   38.0696 C.ar      1 UNK         0.0850 
     10 C10       -14.5621  -11.8180   38.2971 C.ar      1 UNK         0.0850 
     11 C11       -15.6967  -12.4429   37.7079 C.ar      1 UNK         0.0850 
     12 C12       -12.1496  -17.4153   35.1817 C.ar      1 UNK         0.2200 
     13 C13       -13.1210  -14.6562   40.4035 C.2       1 UNK         0.6150 
     14 C14       -10.6874  -17.2075   38.7330 C.3       1 UNK        -0.0050 
     15 C15       -11.5608  -17.8882   39.8233 C.3       1 UNK         0.1700 
     16 C16       -18.2885  -13.7688   37.2197 C.3       1 UNK         0.1100 
     17 C17       -15.2174   -9.5405   38.0117 C.3       1 UNK         0.1100 
     18 C18       -15.8204  -11.8188   35.4729 C.3       1 UNK         0.1100 
     19 C19       -12.1493  -16.9018   40.8457 C.3       1 UNK         0.0800 
     20 N20       -13.0479  -15.9699   40.1768 N.am      1 UNK        -0.5000 
     21 O21       -12.4392  -14.0835   41.2499 O.2       1 UNK        -0.5000 
     22 O22       -12.6539  -18.5454   39.1509 O.3       1 UNK        -0.2850 
     23 O23       -17.1234  -14.4849   37.6034 O.3       1 UNK        -0.2850 
     24 O24       -14.1841  -10.5163   38.0534 O.3       1 UNK        -0.2850 
     25 O25       -16.4255  -11.7768   36.7564 O.3       1 UNK        -0.2850 
     26 F26       -11.9464  -17.0197   33.9039 F         1 UNK        -0.2200 
     27 H27       -14.3683  -19.2297   37.0831 H         1 UNK         0.1150 
     28 H28       -13.9705  -18.4845   34.7209 H         1 UNK         0.1150 
     29 H29       -15.4570  -15.5022   39.2025 H         1 UNK         0.1150 
     30 H30       -12.8603  -12.0829   39.5878 H         1 UNK         0.1150 
     31 H31       -10.3709  -16.4335   35.9476 H         1 UNK         0.1150 
     32 H32        -9.7067  -17.6769   38.6521 H         1 UNK         0.0600 
     33 H33       -10.5547  -16.1371   38.8964 H         1 UNK         0.0600 
     34 H34       -10.9711  -18.6418   40.3472 H         1 UNK         0.0300 
     35 H35       -19.1474  -14.4383   37.2623 H         1 UNK         0.0300 
     36 H36       -18.2119  -13.4090   36.1939 H         1 UNK         0.0300 
     37 H37       -18.4945  -12.9297   37.8862 H         1 UNK         0.0300 
     38 H38       -16.0542   -9.7917   38.6657 H         1 UNK         0.0300 
     39 H39       -15.5890   -9.4004   36.9969 H         1 UNK         0.0300 
     40 H40       -14.8176   -8.5830   38.3446 H         1 UNK         0.0300 
     41 H41       -16.4413  -11.2786   34.7583 H         1 UNK         0.0300 
     42 H42       -15.7203  -12.8470   35.1212 H         1 UNK         0.0300 
     43 H43       -14.8328  -11.3554   35.4764 H         1 UNK         0.0300 
     44 H44       -11.3426  -16.3802   41.3644 H         1 UNK         0.0600 
     45 H45       -12.7132  -17.4422   41.6063 H         1 UNK         0.0600 
     46 H46       -13.5980  -16.3466   39.4191 H         1 UNK         0.3000 
@<TRIPOS>BOND
     1    1    2 ar   
     2    1    8 ar   
     3    1   27 1    
     4    2   12 ar   
     5    2   28 1    
     6    3    6 ar   
     7    3    9 ar   
     8    3   29 1    
     9    4    6 ar   
    10    4   10 ar   
    11    4   30 1    
    12    5    7 ar   
    13    5   12 ar   
    14    5   31 1    
    15    6   13 1    
    16    7    8 ar   
    17    7   14 1    
    18    8   22 1    
    19    9   11 ar   
    20    9   23 1    
    21   10   11 ar   
    22   10   24 1    
    23   11   25 1    
    24   12   26 1    
    25   13   20 am   BACKBONE|DICT|INTERRES
    26   13   21 2    
    27   14   15 1    
    28   14   32 1    
    29   14   33 1    
    30   15   19 1    
    31   15   22 1    
    32   15   34 1    
    33   16   23 1    
    34   16   35 1    
    35   16   36 1    
    36   16   37 1    
    37   17   24 1    
    38   17   38 1    
    39   17   39 1    
    40   17   40 1    
    41   18   25 1    
    42   18   41 1    
    43   18   42 1    
    44   18   43 1    
    45   19   20 1    
    46   19   44 1    
    47   19   45 1    
    48   20   46 1    
@<TRIPOS>SUBSTRUCTURE
     1 UNK         1 GROUP             0       ****    0 ROOT    
@<TRIPOS>MOLECULE
ZINC22601479_5
48   51    1
SMALL
USER_CHARGES


@<TRIPOS>ATOM
      1 C1         -5.4208  -10.3171   35.0028 C.ar      1 UNK        -0.2222 
      2 C2         -5.8736  -11.6456   35.1209 C.ar      1 UNK        -0.0888 
      3 C3         -5.3147   -9.4961   36.1447 C.ar      1 UNK        -0.2243 
      4 C4         -6.2244  -12.1569   36.3844 C.ar      1 UNK        -0.3541 
      5 C5         -8.0754   -6.7427   38.5315 C.ar      1 UNK        -0.1150 
      6 C6         -7.5430   -4.6690   39.6907 C.ar      1 UNK        -0.1150 
      7 C7         -5.6595   -9.9814   37.4272 C.ar      1 UNK         0.1233 
      8 C8         -7.5067   -6.0756   39.6369 C.ar      1 UNK        -0.1150 
      9 C9         -5.6835   -9.4253   38.7506 C.ar      1 UNK        -0.1749 
     10 C10        -8.6137   -4.6023   37.4992 C.ar      1 UNK        -0.1150 
     11 C11        -6.1174  -11.3319   37.5176 C.ar      1 UNK         0.2860 
     12 C12        -8.6158   -6.0165   37.4448 C.ar      1 UNK         0.0850 
     13 C13        -8.0948   -3.9186   38.6247 C.ar      1 UNK         0.0850 
     14 C14        -6.1261  -10.4086   39.5895 C.ar      1 UNK        -0.0293 
     15 C15        -6.9393   -6.8505   40.7927 C.2       1 UNK         0.6150 
     16 C16        -5.3353   -8.0564   39.2578 C.3       1 UNK         0.0059 
     17 C17        -6.3205  -10.2382   41.0632 C.3       1 UNK        -0.0050 
     18 C18        -5.7404   -8.8799   41.5359 C.3       1 UNK        -0.0500 
     19 C19        -9.1963   -3.8023   36.3443 C.3       1 UNK        -0.0650 
     20 C20        -9.0825   -8.0347   36.2170 C.3       1 UNK         0.1100 
     21 C21        -7.6935   -1.8363   39.7624 C.3       1 UNK         0.1100 
     22 N22        -6.3911  -11.5502   38.8558 N.pl3     1 UNK        -0.4786 
     23 N23        -6.0284   -7.8243   40.5425 N.am      1 UNK        -0.1400 
     24 O24        -7.3359   -6.5895   41.9285 O.2       1 UNK        -0.5000 
     25 O25        -9.1547   -6.6197   36.3264 O.3       1 UNK        -0.2850 
     26 O26        -8.1578   -2.5401   38.6197 O.3       1 UNK        -0.2850 
     27 H27        -5.1535   -9.9251   34.0310 H         1 UNK         0.1489 
     28 H28        -5.9511  -12.2703   34.2419 H         1 UNK         0.1359 
     29 H29        -4.9702   -8.4781   36.0427 H         1 UNK         0.1699 
     30 H30        -6.5732  -13.1739   36.4780 H         1 UNK         0.1796 
     31 H31        -8.0772   -7.8223   38.5358 H         1 UNK         0.1150 
     32 H32        -7.1386   -4.1883   40.5689 H         1 UNK         0.1150 
     33 H33        -4.2615   -7.9959   39.4379 H         1 UNK         0.0600 
     34 H34        -5.5307   -7.2955   38.5035 H         1 UNK         0.0600 
     35 H35        -7.3872  -10.2720   41.2882 H         1 UNK         0.0600 
     36 H36        -5.8565  -11.0584   41.6121 H         1 UNK         0.0600 
     37 H37        -6.1000   -8.6425   42.5384 H         1 UNK         0.0600 
     38 H38        -4.6565   -8.9625   41.6244 H         1 UNK         0.0600 
     39 H39       -10.2420   -3.5706   36.5447 H         1 UNK         0.0600 
     40 H40        -8.6586   -2.8650   36.2024 H         1 UNK         0.0600 
     41 H41        -9.1397   -4.3489   35.4036 H         1 UNK         0.0600 
     42 H42        -9.5010   -8.3436   35.2594 H         1 UNK         0.0300 
     43 H43        -9.6600   -8.5246   37.0021 H         1 UNK         0.0300 
     44 H44        -8.0511   -8.3873   36.2528 H         1 UNK         0.0300 
     45 H45        -7.8381   -0.7671   39.6083 H         1 UNK         0.0300 
     46 H46        -6.6285   -2.0039   39.9285 H         1 UNK         0.0300 
     47 H47        -8.2496   -2.1177   40.6579 H         1 UNK         0.0300 
     48 H48        -6.7370  -12.4089   39.2564 H         1 UNK         0.3577 
@<TRIPOS>BOND
     1    1    2 ar   
     2    1    3 ar   
     3    1   27 1    
     4    2    4 ar   
     5    2   28 1    
     6    3    7 ar   
     7    3   29 1    
     8    4   11 ar   
     9    4   30 1    
    10    5    8 ar   
    11    5   12 ar   
    12    5   31 1    
    13    6    8 ar   
    14    6   13 ar   
    15    6   32 1    
    16    7    9 ar   
    17    7   11 ar   
    18    8   15 1    
    19    9   14 ar   
    20    9   16 1    
    21   10   12 ar   
    22   10   13 ar   
    23   10   19 1    
    24   11   22 ar   
    25   12   25 1    
    26   13   26 1    
    27   14   17 1    
    28   14   22 ar   
    29   15   23 am   BACKBONE|DICT|INTERRES
    30   15   24 2    
    31   16   23 1    
    32   16   33 1    
    33   16   34 1    
    34   17   18 1    
    35   17   35 1    
    36   17   36 1    
    37   18   23 1    
    38   18   37 1    
    39   18   38 1    
    40   19   39 1    
    41   19   40 1    
    42   19   41 1    
    43   20   25 1    
    44   20   42 1    
    45   20   43 1    
    46   20   44 1    
    47   21   26 1    
    48   21   45 1    
    49   21   46 1    
    50   21   47 1    
    51   22   48 1    
@<TRIPOS>SUBSTRUCTURE
     1 UNK         1 GROUP             0       ****    0 ROOT    
@<TRIPOS>MOLECULE
ZINC22622826_25
54   56    1
SMALL
USER_CHARGES


@<TRIPOS>ATOM
      1 C1         -6.5150  -12.4789   36.1157 C.ar      1 UNK        -0.1150 
      2 C2         -4.4294  -12.9942   37.2731 C.ar      1 UNK        -0.1150 
      3 C3         -5.8932  -12.7464   34.8800 C.ar      1 UNK        -0.1150 
      4 C4         -3.8105  -13.2617   36.0361 C.ar      1 UNK        -0.1150 
      5 C5         -8.9421   -7.0324   38.4847 C.ar      1 UNK        -0.1150 
      6 C6         -8.2687   -5.0875   39.7880 C.ar      1 UNK        -0.1150 
      7 C7         -8.2924   -6.4850   39.6110 C.ar      1 UNK        -0.1150 
      8 C8         -5.7839  -12.6011   37.3172 C.ar      1 UNK        -0.1150 
      9 C9         -9.5166   -6.1930   37.5008 C.ar      1 UNK         0.0850 
     10 C10        -8.8429   -4.2275   38.8218 C.ar      1 UNK         0.0850 
     11 C11        -9.4483   -4.7896   37.6753 C.ar      1 UNK         0.0850 
     12 C12        -4.5420  -13.1381   34.8402 C.ar      1 UNK         0.2200 
     13 C13        -7.6979   -7.3745   40.6658 C.2       1 UNK         0.6150 
     14 C14        -6.6529  -10.7500   40.6531 C.3       1 UNK        -0.1200 
     15 C15        -6.4214   -9.7598   38.3256 C.3       1 UNK        -0.1200 
     16 C16        -6.3284   -9.3573   41.2250 C.3       1 UNK        -0.0500 
     17 C17        -6.1121   -8.4086   38.9967 C.3       1 UNK        -0.0500 
     18 C18        -6.0489  -10.9441   39.2461 C.3       1 UNK        -0.0600 
     19 C19       -10.2500   -8.0740   36.1889 C.3       1 UNK         0.1100 
     20 C20        -8.3119   -2.2629   40.1027 C.3       1 UNK         0.1100 
     21 C21        -9.2586   -3.8338   35.5497 C.3       1 UNK         0.1100 
     22 C22        -6.4473  -12.3105   38.6523 C.3       1 UNK        -0.0050 
     23 N23        -6.8038   -8.3265   40.2925 N.am      1 UNK        -0.1400 
     24 O24        -8.0471   -7.2094   41.8340 O.2       1 UNK        -0.5000 
     25 O25       -10.1577   -6.6699   36.3754 O.3       1 UNK        -0.2850 
     26 O26        -8.8395   -2.8515   38.9236 O.3       1 UNK        -0.2850 
     27 O27       -10.0067   -3.9451   36.7492 O.3       1 UNK        -0.2850 
     28 F28        -3.9465  -13.3956   33.6526 F         1 UNK        -0.2200 
     29 H29        -7.5524  -12.1780   36.1347 H         1 UNK         0.1150 
     30 H30        -3.8600  -13.0913   38.1863 H         1 UNK         0.1150 
     31 H31        -6.4488  -12.6533   33.9588 H         1 UNK         0.1150 
     32 H32        -2.7741  -13.5627   35.9993 H         1 UNK         0.1150 
     33 H33        -8.9939   -8.1059   38.4003 H         1 UNK         0.1150 
     34 H34        -7.7997   -4.6984   40.6793 H         1 UNK         0.1150 
     35 H35        -6.2795  -11.5192   41.3307 H         1 UNK         0.0600 
     36 H36        -7.7359  -10.8775   40.6128 H         1 UNK         0.0600 
     37 H37        -7.4786   -9.8137   38.0660 H         1 UNK         0.0600 
     38 H38        -5.8724   -9.8266   37.3852 H         1 UNK         0.0600 
     39 H39        -6.7768   -9.2649   42.2160 H         1 UNK         0.0600 
     40 H40        -5.2536   -9.2448   41.3726 H         1 UNK         0.0600 
     41 H41        -5.0382   -8.3236   39.1703 H         1 UNK         0.0600 
     42 H42        -6.3509   -7.5872   38.3219 H         1 UNK         0.0600 
     43 H43        -4.9634  -10.9381   39.3602 H         1 UNK         0.0600 
     44 H44       -10.7787   -8.2774   35.2577 H         1 UNK         0.0300 
     45 H45       -10.8112   -8.5469   36.9959 H         1 UNK         0.0300 
     46 H46        -9.2633   -8.5332   36.1144 H         1 UNK         0.0300 
     47 H47        -8.4217   -1.1802   40.0430 H         1 UNK         0.0300 
     48 H48        -7.2492   -2.4804   40.2160 H         1 UNK         0.0300 
     49 H49        -8.8482   -2.5999   40.9911 H         1 UNK         0.0300 
     50 H50        -9.7124   -3.0772   34.9098 H         1 UNK         0.0300 
     51 H51        -9.2363   -4.7694   34.9912 H         1 UNK         0.0300 
     52 H52        -8.2326   -3.5255   35.7555 H         1 UNK         0.0300 
     53 H53        -7.5308  -12.3692   38.5393 H         1 UNK         0.0600 
     54 H54        -6.1769  -13.1085   39.3455 H         1 UNK         0.0600 
@<TRIPOS>BOND
     1    1    3 ar   
     2    1    8 ar   
     3    1   29 1    
     4    2    4 ar   
     5    2    8 ar   
     6    2   30 1    
     7    3   12 ar   
     8    3   31 1    
     9    4   12 ar   
    10    4   32 1    
    11    5    7 ar   
    12    5    9 ar   
    13    5   33 1    
    14    6    7 ar   
    15    6   10 ar   
    16    6   34 1    
    17    7   13 1    
    18    8   22 1    
    19    9   11 ar   
    20    9   25 1    
    21   10   11 ar   
    22   10   26 1    
    23   11   27 1    
    24   12   28 1    
    25   13   23 am   BACKBONE|DICT|INTERRES
    26   13   24 2    
    27   14   16 1    
    28   14   18 1    
    29   14   35 1    
    30   14   36 1    
    31   15   17 1    
    32   15   18 1    
    33   15   37 1    
    34   15   38 1    
    35   16   23 1    
    36   16   39 1    
    37   16   40 1    
    38   17   23 1    
    39   17   41 1    
    40   17   42 1    
    41   18   22 1    
    42   18   43 1    
    43   19   25 1    
    44   19   44 1    
    45   19   45 1    
    46   19   46 1    
    47   20   26 1    
    48   20   47 1    
    49   20   48 1    
    50   20   49 1    
    51   21   27 1    
    52   21   50 1    
    53   21   51 1    
    54   21   52 1    
    55   22   53 1    
    56   22   54 1    
@<TRIPOS>SUBSTRUCTURE
     1 UNK         1 GROUP             0       ****    0 ROOT    
@<TRIPOS>MOLECULE
ZINC22746804_30
48   50    1
SMALL
USER_CHARGES


@<TRIPOS>ATOM
      1 C1        -12.7227  -18.9391   36.3699 C.2       1 UNK        -0.1540 
      2 C2        -12.4811  -19.7593   37.5060 C.2       1 UNK        -0.1540 
      3 C3        -13.4476  -18.1235   42.2024 C.ar      1 UNK        -0.3200 
      4 C4        -16.5260  -16.3002   38.3732 C.ar      1 UNK        -0.1150 
      5 C5        -15.1788  -14.2986   38.6379 C.ar      1 UNK        -0.1150 
      6 C6        -12.9544  -19.3928   42.6145 C.ar      1 UNK         0.2660 
      7 C7        -15.5059  -15.6032   39.0490 C.ar      1 UNK        -0.1150 
      8 C8        -17.2080  -15.7281   37.2843 C.ar      1 UNK         0.0850 
      9 C9        -15.8455  -13.6894   37.5475 C.ar      1 UNK         0.0850 
     10 C10       -16.8819  -14.3991   36.8781 C.ar      1 UNK         0.0850 
     11 C11       -14.0308  -18.5524   36.4457 C.2       1 UNK         0.0080 
     12 C12       -13.6591  -19.8161   38.1957 C.2       1 UNK         0.0080 
     13 C13       -13.9253  -18.3776   40.9464 C.ar      1 UNK         0.2560 
     14 C14       -14.7937  -16.2181   40.2162 C.2       1 UNK         0.6150 
     15 C15       -14.9004  -17.7083   35.5784 C.3       1 UNK        -0.0650 
     16 C16       -18.7612  -16.2231   35.4808 C.3       1 UNK         0.1100 
     17 C17       -14.4855  -11.7057   37.7440 C.3       1 UNK         0.1100 
     18 C18       -18.1495  -12.5504   36.0836 C.3       1 UNK         0.1100 
     19 C19       -14.0765  -20.4793   39.4686 C.3       1 UNK         0.1175 
     20 N20       -13.1247  -20.3335   41.6939 N.2       1 UNK        -0.5310 
     21 N21       -13.7145  -19.7102   40.6496 N.pl3     1 UNK         0.0695 
     22 N22       -14.5238  -17.5241   40.0773 N.am      1 UNK        -0.3850 
     23 O23       -14.4474  -15.5207   41.1684 O.2       1 UNK        -0.5000 
     24 O24       -14.6119  -19.0725   37.5630 O.3       1 UNK        -0.1900 
     25 O25       -18.1628  -16.5552   36.7235 O.3       1 UNK        -0.2850 
     26 O26       -15.5144  -12.4306   37.0858 O.3       1 UNK        -0.2850 
     27 O27       -17.5542  -13.8160   35.8276 O.3       1 UNK        -0.2850 
     28 H28       -12.0249  -18.6673   35.5908 H         1 UNK         0.1260 
     29 H29       -11.5584  -20.2461   37.7884 H         1 UNK         0.1260 
     30 H30       -13.4459  -17.1915   42.7488 H         1 UNK         0.1500 
     31 H31       -16.8051  -17.2966   38.6843 H         1 UNK         0.1150 
     32 H32       -14.3965  -13.7867   39.1784 H         1 UNK         0.1150 
     33 H33       -12.4864  -19.6600   43.5512 H         1 UNK         0.0720 
     34 H34       -14.6466  -17.8420   34.5269 H         1 UNK         0.0600 
     35 H35       -15.9514  -17.9701   35.7037 H         1 UNK         0.0600 
     36 H36       -14.7822  -16.6525   35.8221 H         1 UNK         0.0600 
     37 H37       -19.4433  -15.3782   35.5798 H         1 UNK         0.0300 
     38 H38       -19.3487  -17.0720   35.1321 H         1 UNK         0.0300 
     39 H39       -18.0135  -16.0102   34.7156 H         1 UNK         0.0300 
     40 H40       -14.7371  -11.5149   38.7882 H         1 UNK         0.0300 
     41 H41       -14.3585  -10.7401   37.2549 H         1 UNK         0.0300 
     42 H42       -13.5297  -12.2286   37.6898 H         1 UNK         0.0300 
     43 H43       -18.3927  -12.4073   37.1380 H         1 UNK         0.0300 
     44 H44       -19.0779  -12.4716   35.5182 H         1 UNK         0.0300 
     45 H45       -17.5002  -11.7384   35.7564 H         1 UNK         0.0300 
     46 H46       -15.1559  -20.6314   39.4803 H         1 UNK         0.0600 
     47 H47       -13.6208  -21.4683   39.5330 H         1 UNK         0.0600 
     48 H48       -14.7769  -17.9229   39.1832 H         1 UNK         0.3000 
@<TRIPOS>BOND
     1    1    2 1    
     2    1   11 2    
     3    1   28 1    
     4    2   12 2    
     5    2   29 1    
     6    3    6 ar   
     7    3   13 ar   
     8    3   30 1    
     9    4    7 ar   
    10    4    8 ar   
    11    4   31 1    
    12    5    7 ar   
    13    5    9 ar   
    14    5   32 1    
    15    6   20 ar   
    16    6   33 1    
    17    7   14 1    
    18    8   10 ar   
    19    8   25 1    
    20    9   10 ar   
    21    9   26 1    
    22   10   27 1    
    23   11   15 1    
    24   11   24 1    
    25   12   19 1    
    26   12   24 1    
    27   13   21 ar   
    28   13   22 1    
    29   14   22 am   BACKBONE|DICT|INTERRES
    30   14   23 2    
    31   15   34 1    
    32   15   35 1    
    33   15   36 1    
    34   16   25 1    
    35   16   37 1    
    36   16   38 1    
    37   16   39 1    
    38   17   26 1    
    39   17   40 1    
    40   17   41 1    
    41   17   42 1    
    42   18   27 1    
    43   18   43 1    
    44   18   44 1    
    45   18   45 1    
    46   19   21 1    
    47   19   46 1    
    48   19   47 1    
    49   20   21 ar   
    50   22   48 1    
@<TRIPOS>SUBSTRUCTURE
     1 UNK         1 GROUP             0       ****    0 ROOT    
@<TRIPOS>MOLECULE
ZINC23116624_262
43   45    1
SMALL
USER_CHARGES


@<TRIPOS>ATOM
      1 C1         -4.5048  -10.2382   35.4236 C.ar      1 UNK        -0.1150 
      2 C2         -4.8198   -9.8459   36.7396 C.ar      1 UNK        -0.1150 
      3 C3         -4.8438  -11.5289   34.9757 C.ar      1 UNK        -0.1150 
      4 C4         -5.8116  -12.0315   37.1577 C.ar      1 UNK        -0.1150 
      5 C5         -7.7031   -4.1776   39.5606 C.ar      1 UNK        -0.1150 
      6 C6         -8.4291   -4.9387   36.9550 C.ar      1 UNK        -0.1150 
      7 C7         -6.6723  -10.0162   41.2694 C.2       1 UNK        -0.3376 
      8 C8         -5.4788  -10.7367   37.6185 C.ar      1 UNK         0.0000 
      9 C9         -7.3336   -5.4516   39.0678 C.ar      1 UNK         0.0850 
     10 C10        -8.4486   -3.2795   38.7574 C.ar      1 UNK         0.0850 
     11 C11        -7.6880   -5.8378   37.7574 C.ar      1 UNK         0.0850 
     12 C12        -5.4951  -12.4240   35.8437 C.ar      1 UNK         0.2200 
     13 C13        -8.8056   -3.6771   37.4513 C.ar      1 UNK         0.1800 
     14 C14        -5.8916   -8.9723   40.8386 C.2       1 UNK         0.1693 
     15 C15        -5.8065  -10.3047   38.9788 C.2       1 UNK         0.3009 
     16 C16        -6.3720   -6.5072   41.1329 C.2       1 UNK         0.5000 
     17 C17        -8.5317   -1.6217   40.4988 C.3       1 UNK         0.1100 
     18 C18        -7.6852   -7.5338   36.0511 C.3       1 UNK         0.1100 
     19 C19        -5.5455   -7.7156   41.5963 C.3       1 UNK        -0.0050 
     20 N20        -5.3976   -9.1623   39.5419 N.2       1 UNK        -0.4803 
     21 N21        -6.5797   -6.3967   39.8096 N.am      1 UNK        -0.3850 
     22 O22        -6.7800   -5.7026   41.9695 O.2       1 UNK        -0.5000 
     23 O23        -8.8482   -2.0262   39.1746 O.3       1 UNK        -0.2850 
     24 O24        -7.2823   -7.0906   37.3392 O.3       1 UNK        -0.2850 
     25 F25        -5.8190  -13.6655   35.4140 F         1 UNK        -0.2200 
     26 S26        -6.8315  -11.2567   40.0552 S.3       1 UNK         0.0010 
     27 Cl27       -9.7109   -2.6159   36.4320 Cl        1 UNK        -0.1800 
     28 H28        -4.0020   -9.5499   34.7598 H         1 UNK         0.1150 
     29 H29        -4.5575   -8.8515   37.0734 H         1 UNK         0.1150 
     30 H30        -4.6043  -11.8383   33.9688 H         1 UNK         0.1150 
     31 H31        -6.3090  -12.7425   37.7994 H         1 UNK         0.1150 
     32 H32        -7.4050   -3.8894   40.5546 H         1 UNK         0.1150 
     33 H33        -8.7241   -5.1890   35.9486 H         1 UNK         0.1150 
     34 H34        -7.1735  -10.1278   42.2200 H         1 UNK         0.2317 
     35 H35        -8.9361   -0.6252   40.6765 H         1 UNK         0.0300 
     36 H36        -7.4530   -1.5717   40.6534 H         1 UNK         0.0300 
     37 H37        -8.9731   -2.2919   41.2381 H         1 UNK         0.0300 
     38 H38        -7.3386   -8.5555   35.8964 H         1 UNK         0.0300 
     39 H39        -7.2507   -6.9153   35.2648 H         1 UNK         0.0300 
     40 H40        -8.7714   -7.5393   35.9498 H         1 UNK         0.0300 
     41 H41        -5.7045   -7.8584   42.6655 H         1 UNK         0.0600 
     42 H42        -4.4894   -7.4739   41.4747 H         1 UNK         0.0600 
     43 H43        -6.2407   -7.1835   39.2646 H         1 UNK         0.3000 
@<TRIPOS>BOND
     1    1    2 ar   
     2    1    3 ar   
     3    1   28 1    
     4    2    8 ar   
     5    2   29 1    
     6    3   12 ar   
     7    3   30 1    
     8    4    8 ar   
     9    4   12 ar   
    10    4   31 1    
    11    5    9 ar   
    12    5   10 ar   
    13    5   32 1    
    14    6   11 ar   
    15    6   13 ar   
    16    6   33 1    
    17    7   14 2    
    18    7   26 1    
    19    7   34 1    
    20    8   15 1    
    21    9   11 ar   
    22    9   21 1    
    23   10   13 ar   
    24   10   23 1    
    25   11   24 1    
    26   12   25 1    
    27   13   27 1    
    28   14   19 1    
    29   14   20 1    
    30   15   20 2    
    31   15   26 1    
    32   16   19 1    
    33   16   21 am   BACKBONE|DICT|INTERRES
    34   16   22 2    
    35   17   23 1    
    36   17   35 1    
    37   17   36 1    
    38   17   37 1    
    39   18   24 1    
    40   18   38 1    
    41   18   39 1    
    42   18   40 1    
    43   19   41 1    
    44   19   42 1    
    45   21   43 1    
@<TRIPOS>SUBSTRUCTURE
     1 UNK         1 GROUP             0       ****    0 ROOT    
@<TRIPOS>MOLECULE
ZINC23123416_223
46   48    1
SMALL
USER_CHARGES


@<TRIPOS>ATOM
      1 C1         -4.1602  -10.4562   35.5450 C.ar      1 UNK        -0.1150 
      2 C2         -4.4330   -9.9701   36.8389 C.ar      1 UNK        -0.1150 
      3 C3         -4.7863  -11.6321   35.0901 C.ar      1 UNK        -0.1150 
      4 C4         -5.9543  -11.8342   37.2216 C.ar      1 UNK        -0.1150 
      5 C5         -8.4583   -4.9443   36.7112 C.ar      1 UNK        -0.1150 
      6 C6         -7.6383   -4.0170   39.2283 C.ar      1 UNK        -0.1150 
      7 C7         -6.3433   -9.7066   41.3427 C.2       1 UNK        -0.3376 
      8 C8         -5.3317  -10.6542   37.6901 C.ar      1 UNK         0.0000 
      9 C9         -7.6662   -5.7708   37.5327 C.ar      1 UNK        -0.1150 
     10 C10        -7.2580   -5.3117   38.8059 C.ar      1 UNK         0.0850 
     11 C11        -8.8512   -3.6524   37.1384 C.ar      1 UNK         0.0850 
     12 C12        -8.4382   -3.1853   38.4058 C.ar      1 UNK         0.0850 
     13 C13        -5.6825  -12.3192   35.9288 C.ar      1 UNK         0.2200 
     14 C14        -5.6530   -8.6597   40.7846 C.2       1 UNK         0.1693 
     15 C15        -5.6078  -10.1285   39.0285 C.2       1 UNK         0.3009 
     16 C16        -6.2274   -6.2019   40.9175 C.2       1 UNK         0.5000 
     17 C17        -7.2702   -7.1527   37.0349 C.3       1 UNK        -0.0650 
     18 C18       -10.0637   -3.2350   35.1015 C.3       1 UNK         0.1100 
     19 C19        -8.4928   -1.4331   40.0547 C.3       1 UNK         0.1100 
     20 C20        -5.3280   -7.3356   41.4298 C.3       1 UNK        -0.0050 
     21 N21        -5.2346   -8.9225   39.4727 N.2       1 UNK        -0.4803 
     22 N22        -6.4434   -6.1730   39.5902 N.am      1 UNK        -0.3850 
     23 O23        -6.6804   -5.3853   41.7183 O.2       1 UNK        -0.5000 
     24 O24        -9.6266   -2.7999   36.3793 O.3       1 UNK        -0.2850 
     25 O25        -8.8461   -1.9170   38.7675 O.3       1 UNK        -0.2850 
     26 F26        -6.2863  -13.4483   35.4911 F         1 UNK        -0.2200 
     27 S27        -6.5054  -11.0461   40.2396 S.3       1 UNK         0.0010 
     28 H28        -3.4700   -9.9284   34.9027 H         1 UNK         0.1150 
     29 H29        -3.9443   -9.0679   37.1792 H         1 UNK         0.1150 
     30 H30        -4.5823  -12.0113   34.0994 H         1 UNK         0.1150 
     31 H31        -6.6499  -12.3824   37.8381 H         1 UNK         0.1150 
     32 H32        -8.7599   -5.3215   35.7472 H         1 UNK         0.1150 
     33 H33        -7.3043   -3.6583   40.1872 H         1 UNK         0.1150 
     34 H34        -6.7739   -9.7709   42.3319 H         1 UNK         0.2317 
     35 H35        -6.1866   -7.2313   36.9450 H         1 UNK         0.0600 
     36 H36        -7.6175   -7.9219   37.7257 H         1 UNK         0.0600 
     37 H37        -7.7024   -7.3662   36.0572 H         1 UNK         0.0600 
     38 H38       -10.6649   -2.4504   34.6422 H         1 UNK         0.0300 
     39 H39       -10.6876   -4.1266   35.1756 H         1 UNK         0.0300 
     40 H40        -9.2209   -3.4345   34.4388 H         1 UNK         0.0300 
     41 H41        -8.9154   -0.4379   40.1925 H         1 UNK         0.0300 
     42 H42        -7.4109   -1.3493   40.1653 H         1 UNK         0.0300 
     43 H43        -8.8900   -2.0720   40.8450 H         1 UNK         0.0300 
     44 H44        -5.4330   -7.4024   42.5132 H         1 UNK         0.0600 
     45 H45        -4.2900   -7.0611   41.2411 H         1 UNK         0.0600 
     46 H46        -6.0442   -6.9660   39.1032 H         1 UNK         0.3000 
@<TRIPOS>BOND
     1    1    2 ar   
     2    1    3 ar   
     3    1   28 1    
     4    2    8 ar   
     5    2   29 1    
     6    3   13 ar   
     7    3   30 1    
     8    4    8 ar   
     9    4   13 ar   
    10    4   31 1    
    11    5    9 ar   
    12    5   11 ar   
    13    5   32 1    
    14    6   10 ar   
    15    6   12 ar   
    16    6   33 1    
    17    7   14 2    
    18    7   27 1    
    19    7   34 1    
    20    8   15 1    
    21    9   10 ar   
    22    9   17 1    
    23   10   22 1    
    24   11   12 ar   
    25   11   24 1    
    26   12   25 1    
    27   13   26 1    
    28   14   20 1    
    29   14   21 1    
    30   15   21 2    
    31   15   27 1    
    32   16   20 1    
    33   16   22 am   BACKBONE|DICT|INTERRES
    34   16   23 2    
    35   17   35 1    
    36   17   36 1    
    37   17   37 1    
    38   18   24 1    
    39   18   38 1    
    40   18   39 1    
    41   18   40 1    
    42   19   25 1    
    43   19   41 1    
    44   19   42 1    
    45   19   43 1    
    46   20   44 1    
    47   20   45 1    
    48   22   46 1    
@<TRIPOS>SUBSTRUCTURE
     1 UNK         1 GROUP             0       ****    0 ROOT    
@<TRIPOS>MOLECULE
ZINC23140239_116
53   56    1
SMALL
USER_CHARGES


@<TRIPOS>ATOM
      1 C1         -3.5050  -13.3011   33.3911 C.2       1 UNK        -0.0738 
      2 C2         -3.9209  -11.9776   33.7257 C.2       1 UNK        -0.0738 
      3 C3         -7.0121   -4.0611   39.7990 C.ar      1 UNK        -0.1150 
      4 C4         -7.8088   -6.0274   38.6171 C.ar      1 UNK        -0.1150 
      5 C5         -3.4455  -14.1310   34.4812 C.2       1 UNK        -0.3255 
      6 C6         -7.1207   -5.4609   39.7096 C.ar      1 UNK        -0.1150 
      7 C7         -7.5301   -3.2276   38.7803 C.ar      1 UNK         0.0850 
      8 C8         -8.3197   -5.2206   37.5710 C.ar      1 UNK         0.0850 
      9 C9         -8.1602   -3.8067   37.6535 C.ar      1 UNK         0.0850 
     10 C10        -4.1732  -11.8160   35.0638 C.2       1 UNK        -0.0637 
     11 C11        -4.6132  -10.6120   35.7587 C.2       1 UNK         0.5614 
     12 C12        -5.2055   -9.4056   37.3843 C.2       1 UNK         0.4464 
     13 C13        -6.5830   -6.3124   40.8273 C.2       1 UNK         0.6150 
     14 C14        -5.7559   -9.7092   41.2358 C.3       1 UNK        -0.1200 
     15 C15        -5.3105  -10.1232   39.8205 C.3       1 UNK        -0.1200 
     16 C16        -5.2850   -8.2831   41.5751 C.3       1 UNK        -0.0500 
     17 C17        -5.1829   -7.6806   39.2232 C.3       1 UNK        -0.0500 
     18 C18        -5.6961   -9.0644   38.7605 C.3       1 UNK         0.0550 
     19 C19        -6.8729   -1.2304   39.9540 C.3       1 UNK         0.1100 
     20 C20        -8.9514   -7.1682   36.2920 C.3       1 UNK         0.1100 
     21 C21        -8.5884   -3.3028   35.3366 C.3       1 UNK         0.1100 
     22 N22        -4.8543   -9.4017   35.2484 N.2       1 UNK        -0.3751 
     23 N23        -5.2669   -8.6230   36.3045 N.2       1 UNK        -0.3751 
     24 N24        -5.7590   -7.3545   40.5380 N.am      1 UNK        -0.1400 
     25 O25        -6.8954   -6.0186   41.9802 O.2       1 UNK        -0.5000 
     26 O26        -4.8457  -10.6839   37.0958 O.3       1 UNK        -0.3726 
     27 O27        -7.4433   -1.8501   38.8117 O.3       1 UNK        -0.2850 
     28 O28        -8.9986   -5.7632   36.4977 O.3       1 UNK        -0.2850 
     29 O29        -8.6165   -2.9155   36.7022 O.3       1 UNK        -0.2850 
     30 S30        -3.9007  -13.2993   35.9461 S.3       1 UNK         0.0328 
     31 H31        -3.2678  -13.5910   32.3771 H         1 UNK         0.1211 
     32 H32        -4.0224  -11.1931   32.9890 H         1 UNK         0.1211 
     33 H33        -6.5232   -3.6475   40.6682 H         1 UNK         0.1150 
     34 H34        -7.9451   -7.0954   38.6054 H         1 UNK         0.1150 
     35 H35        -3.1637  -15.1742   34.5173 H         1 UNK         0.2618 
     36 H36        -6.8436   -9.7582   41.3077 H         1 UNK         0.0600 
     37 H37        -5.3692  -10.4162   41.9713 H         1 UNK         0.0600 
     38 H38        -4.2284  -10.2638   39.8134 H         1 UNK         0.0600 
     39 H39        -5.7461  -11.0907   39.5659 H         1 UNK         0.0600 
     40 H40        -5.6364   -8.0172   42.5739 H         1 UNK         0.0600 
     41 H41        -4.1960   -8.2429   41.6264 H         1 UNK         0.0600 
     42 H42        -4.0950   -7.6997   39.3048 H         1 UNK         0.0600 
     43 H43        -5.3838   -6.9204   38.4695 H         1 UNK         0.0600 
     44 H44        -6.7833   -9.0336   38.6958 H         1 UNK         0.0600 
     45 H45        -6.9093   -0.1484   39.8296 H         1 UNK         0.0300 
     46 H46        -5.8269   -1.5122   40.0803 H         1 UNK         0.0300 
     47 H47        -7.4279   -1.4766   40.8604 H         1 UNK         0.0300 
     48 H48        -9.4140   -7.4064   35.3343 H         1 UNK         0.0300 
     49 H49        -9.5046   -7.7026   37.0651 H         1 UNK         0.0300 
     50 H50        -7.9247   -7.5351   36.2590 H         1 UNK         0.0300 
     51 H51        -8.5294   -2.4093   34.7155 H         1 UNK         0.0300 
     52 H52        -9.5013   -3.8296   35.0582 H         1 UNK         0.0300 
     53 H53        -7.7224   -3.9235   35.1003 H         1 UNK         0.0300 
@<TRIPOS>BOND
     1    1    2 1    
     2    1    5 2    
     3    1   31 1    
     4    2   10 2    
     5    2   32 1    
     6    3    6 ar   
     7    3    7 ar   
     8    3   33 1    
     9    4    6 ar   
    10    4    8 ar   
    11    4   34 1    
    12    5   30 1    
    13    5   35 1    
    14    6   13 1    
    15    7    9 ar   
    16    7   27 1    
    17    8    9 ar   
    18    8   28 1    
    19    9   29 1    
    20   10   11 1    
    21   10   30 1    
    22   11   22 2    
    23   11   26 1    
    24   12   18 1    
    25   12   23 2    
    26   12   26 1    
    27   13   24 am   BACKBONE|DICT|INTERRES
    28   13   25 2    
    29   14   15 1    
    30   14   16 1    
    31   14   36 1    
    32   14   37 1    
    33   15   18 1    
    34   15   38 1    
    35   15   39 1    
    36   16   24 1    
    37   16   40 1    
    38   16   41 1    
    39   17   18 1    
    40   17   24 1    
    41   17   42 1    
    42   17   43 1    
    43   18   44 1    
    44   19   27 1    
    45   19   45 1    
    46   19   46 1    
    47   19   47 1    
    48   20   28 1    
    49   20   48 1    
    50   20   49 1    
    51   20   50 1    
    52   21   29 1    
    53   21   51 1    
    54   21   52 1    
    55   21   53 1    
    56   22   23 1    
@<TRIPOS>SUBSTRUCTURE
     1 UNK         1 GROUP             0       ****    0 ROOT    
@<TRIPOS>MOLECULE
ZINC23140544_115
49   51    1
SMALL
USER_CHARGES


@<TRIPOS>ATOM
      1 C1         -8.3631   -6.0049   38.7433 C.ar      1 UNK        -0.1150 
      2 C2         -6.6427   -4.3567   39.2318 C.ar      1 UNK        -0.1150 
      3 C3         -7.2553   -5.5926   39.5094 C.ar      1 UNK        -0.1150 
      4 C4         -8.8207   -5.2194   37.6603 C.ar      1 UNK         0.0850 
      5 C5         -7.0839   -3.5452   38.1572 C.ar      1 UNK         0.0850 
      6 C6         -8.1676   -4.0026   37.3522 C.ar      1 UNK         0.0850 
      7 C7         -4.2869   -9.2109   37.6878 C.2       1 UNK         0.2287 
      8 C8         -3.9794  -10.4001   35.6228 C.2       1 UNK         0.2287 
      9 C9         -6.7689   -6.4209   40.6635 C.2       1 UNK         0.6150 
     10 C10        -4.6458   -8.9798   41.5492 C.3       1 UNK        -0.1200 
     11 C11        -4.2019   -9.5509   40.1905 C.3       1 UNK        -0.1200 
     12 C12        -6.1488   -8.6461   41.5424 C.3       1 UNK        -0.0500 
     13 C13        -6.1610   -8.3177   39.1237 C.3       1 UNK        -0.0500 
     14 C14        -4.6572   -8.6496   39.0252 C.3       1 UNK         0.0550 
     15 C15        -3.9773  -11.2944   34.4329 C.3       1 UNK        -0.0650 
     16 C16       -10.5869   -6.7787   37.1551 C.3       1 UNK         0.1100 
     17 C17        -5.4502   -1.8500   38.6972 C.3       1 UNK         0.1100 
     18 C18        -7.7740   -2.5926   35.4434 C.3       1 UNK         0.1100 
     19 N19        -3.3845   -8.6264   36.8926 N.2       1 UNK        -0.3126 
     20 N20        -3.2093   -9.3110   35.7000 N.2       1 UNK        -0.3126 
     21 N21        -6.4469   -7.7205   40.4397 N.am      1 UNK        -0.1400 
     22 O22        -6.6903   -5.8958   41.7729 O.2       1 UNK        -0.5000 
     23 O23        -9.8826   -5.5832   36.8565 O.3       1 UNK        -0.2850 
     24 O24        -6.5153   -2.3170   37.8817 O.3       1 UNK        -0.2850 
     25 O25        -8.6769   -3.3084   36.2730 O.3       1 UNK        -0.2850 
     26 S26        -4.9929  -10.6845   37.0312 S.3       1 UNK        -0.0622 
     27 H27        -8.8435   -6.9359   39.0016 H         1 UNK         0.1150 
     28 H28        -5.8287   -4.0517   39.8721 H         1 UNK         0.1150 
     29 H29        -4.4220   -9.6908   42.3456 H         1 UNK         0.0600 
     30 H30        -4.0744   -8.0774   41.7739 H         1 UNK         0.0600 
     31 H31        -3.1179   -9.6730   40.1697 H         1 UNK         0.0600 
     32 H32        -4.6264  -10.5483   40.0685 H         1 UNK         0.0600 
     33 H33        -6.7368   -9.5559   41.4149 H         1 UNK         0.0600 
     34 H34        -6.4423   -8.2411   42.5132 H         1 UNK         0.0600 
     35 H35        -6.4169   -7.6707   38.2859 H         1 UNK         0.0600 
     36 H36        -6.7639   -9.2184   39.0028 H         1 UNK         0.0600 
     37 H37        -4.1163   -7.7058   39.1224 H         1 UNK         0.0600 
     38 H38        -2.9529  -11.5430   34.1557 H         1 UNK         0.0600 
     39 H39        -4.5170  -12.2163   34.6482 H         1 UNK         0.0600 
     40 H40        -4.4561  -10.7923   33.5923 H         1 UNK         0.0600 
     41 H41       -11.4005   -6.9028   36.4404 H         1 UNK         0.0300 
     42 H42       -11.0275   -6.7430   38.1523 H         1 UNK         0.0300 
     43 H43        -9.9410   -7.6537   37.0733 H         1 UNK         0.0300 
     44 H44        -5.1249   -0.8744   38.3366 H         1 UNK         0.0300 
     45 H45        -4.5899   -2.5190   38.6530 H         1 UNK         0.0300 
     46 H46        -5.7644   -1.7283   39.7349 H         1 UNK         0.0300 
     47 H47        -8.1938   -2.5217   34.4403 H         1 UNK         0.0300 
     48 H48        -6.8059   -3.0892   35.3588 H         1 UNK         0.0300 
     49 H49        -7.6289   -1.5750   35.8065 H         1 UNK         0.0300 
@<TRIPOS>BOND
     1    1    3 ar   
     2    1    4 ar   
     3    1   27 1    
     4    2    3 ar   
     5    2    5 ar   
     6    2   28 1    
     7    3    9 1    
     8    4    6 ar   
     9    4   23 1    
    10    5    6 ar   
    11    5   24 1    
    12    6   25 1    
    13    7   14 1    
    14    7   19 2    
    15    7   26 1    
    16    8   15 1    
    17    8   20 2    
    18    8   26 1    
    19    9   21 am   BACKBONE|DICT|INTERRES
    20    9   22 2    
    21   10   11 1    
    22   10   12 1    
    23   10   29 1    
    24   10   30 1    
    25   11   14 1    
    26   11   31 1    
    27   11   32 1    
    28   12   21 1    
    29   12   33 1    
    30   12   34 1    
    31   13   14 1    
    32   13   21 1    
    33   13   35 1    
    34   13   36 1    
    35   14   37 1    
    36   15   38 1    
    37   15   39 1    
    38   15   40 1    
    39   16   23 1    
    40   16   41 1    
    41   16   42 1    
    42   16   43 1    
    43   17   24 1    
    44   17   44 1    
    45   17   45 1    
    46   17   46 1    
    47   18   25 1    
    48   18   47 1    
    49   18   48 1    
    50   18   49 1    
    51   19   20 1    
@<TRIPOS>SUBSTRUCTURE
     1 UNK         1 GROUP             0       ****    0 ROOT    
@<TRIPOS>MOLECULE
ZINC23140547_111
49   51    1
SMALL
USER_CHARGES


@<TRIPOS>ATOM
      1 C1         -8.0169   -6.2352   38.7535 C.ar      1 UNK        -0.1150 
      2 C2         -6.9812   -4.1844   39.5649 C.ar      1 UNK        -0.1150 
      3 C3         -7.1831   -5.5738   39.6795 C.ar      1 UNK        -0.1150 
      4 C4         -8.6022   -5.5276   37.6774 C.ar      1 UNK         0.0850 
      5 C5         -7.5611   -3.4533   38.5000 C.ar      1 UNK         0.0850 
      6 C6         -8.3537   -4.1424   37.5490 C.ar      1 UNK         0.0850 
      7 C7         -5.2494   -9.5793   37.4943 C.2       1 UNK         0.2287 
      8 C8         -4.9071  -10.2235   35.2070 C.2       1 UNK         0.2287 
      9 C9         -6.5664   -6.3190   40.8283 C.2       1 UNK         0.6150 
     10 C10        -5.8136   -9.7276   41.3383 C.3       1 UNK        -0.1200 
     11 C11        -5.3832  -10.2085   39.9399 C.3       1 UNK        -0.1200 
     12 C12        -5.3082   -8.2991   41.6182 C.3       1 UNK        -0.0500 
     13 C13        -5.2426   -7.7615   39.2419 C.3       1 UNK        -0.0500 
     14 C14        -5.7277   -9.1717   38.8513 C.3       1 UNK         0.0550 
     15 C15        -4.9568  -10.6141   33.7716 C.3       1 UNK        -0.0650 
     16 C16        -9.7510   -7.4842   36.8766 C.3       1 UNK         0.1100 
     17 C17        -6.6768   -1.3719   39.3254 C.3       1 UNK         0.1100 
     18 C18        -8.0249   -3.0456   35.5045 C.3       1 UNK         0.1100 
     19 N19        -3.9540   -9.7329   37.1977 N.2       1 UNK        -0.3126 
     20 N20        -3.7569  -10.1066   35.8774 N.2       1 UNK        -0.3126 
     21 N21        -5.7868   -7.3974   40.5603 N.am      1 UNK        -0.1400 
     22 O22        -6.7969   -5.9281   41.9711 O.2       1 UNK        -0.5000 
     23 O23        -9.4063   -6.1162   36.7229 O.3       1 UNK        -0.2850 
     24 O24        -7.4065   -2.0910   38.3425 O.3       1 UNK        -0.2850 
     25 O25        -8.9377   -3.4728   36.5027 O.3       1 UNK        -0.2850 
     26 S26        -6.3479   -9.8789   36.1541 S.3       1 UNK        -0.0622 
     27 H27        -8.1977   -7.2891   38.8899 H         1 UNK         0.1150 
     28 H28        -6.3738   -3.7002   40.3151 H         1 UNK         0.1150 
     29 H29        -6.9018   -9.7491   41.4151 H         1 UNK         0.0600 
     30 H30        -5.4391  -10.4130   42.0999 H         1 UNK         0.0600 
     31 H31        -4.3054  -10.3805   39.9421 H         1 UNK         0.0600 
     32 H32        -5.8452  -11.1693   39.7098 H         1 UNK         0.0600 
     33 H33        -5.6376   -7.9905   42.6124 H         1 UNK         0.0600 
     34 H34        -4.2178   -8.2781   41.6458 H         1 UNK         0.0600 
     35 H35        -4.1527   -7.7496   39.2984 H         1 UNK         0.0600 
     36 H36        -5.4891   -7.0472   38.4568 H         1 UNK         0.0600 
     37 H37        -6.8150   -9.1348   38.7881 H         1 UNK         0.0600 
     38 H38        -4.4443  -11.5653   33.6274 H         1 UNK         0.0600 
     39 H39        -5.9897  -10.7173   33.4406 H         1 UNK         0.0600 
     40 H40        -4.4653   -9.8548   33.1634 H         1 UNK         0.0600 
     41 H41       -10.4243   -7.7778   36.0711 H         1 UNK         0.0300 
     42 H42       -10.2696   -7.6609   37.8199 H         1 UNK         0.0300 
     43 H43        -8.8709   -8.1254   36.8203 H         1 UNK         0.0300 
     44 H44        -6.6719   -0.3136   39.0650 H         1 UNK         0.0300 
     45 H45        -5.6387   -1.7033   39.3732 H         1 UNK         0.0300 
     46 H46        -7.1344   -1.4659   40.3113 H         1 UNK         0.0300 
     47 H47        -8.5812   -2.6596   34.6505 H         1 UNK         0.0300 
     48 H48        -7.4095   -3.8751   35.1528 H         1 UNK         0.0300 
     49 H49        -7.3695   -2.2496   35.8570 H         1 UNK         0.0300 
@<TRIPOS>BOND
     1    1    3 ar   
     2    1    4 ar   
     3    1   27 1    
     4    2    3 ar   
     5    2    5 ar   
     6    2   28 1    
     7    3    9 1    
     8    4    6 ar   
     9    4   23 1    
    10    5    6 ar   
    11    5   24 1    
    12    6   25 1    
    13    7   14 1    
    14    7   19 2    
    15    7   26 1    
    16    8   15 1    
    17    8   20 2    
    18    8   26 1    
    19    9   21 am   BACKBONE|DICT|INTERRES
    20    9   22 2    
    21   10   11 1    
    22   10   12 1    
    23   10   29 1    
    24   10   30 1    
    25   11   14 1    
    26   11   31 1    
    27   11   32 1    
    28   12   21 1    
    29   12   33 1    
    30   12   34 1    
    31   13   14 1    
    32   13   21 1    
    33   13   35 1    
    34   13   36 1    
    35   14   37 1    
    36   15   38 1    
    37   15   39 1    
    38   15   40 1    
    39   16   23 1    
    40   16   41 1    
    41   16   42 1    
    42   16   43 1    
    43   17   24 1    
    44   17   44 1    
    45   17   45 1    
    46   17   46 1    
    47   18   25 1    
    48   18   47 1    
    49   18   48 1    
    50   18   49 1    
    51   19   20 1    
@<TRIPOS>SUBSTRUCTURE
     1 UNK         1 GROUP             0       ****    0 ROOT    
@<TRIPOS>MOLECULE
ZINC23331156_284
43   45    1
SMALL
USER_CHARGES


@<TRIPOS>ATOM
      1 C1         -5.6044  -10.7441   35.1912 C.ar      1 UNK        -0.1150 
      2 C2         -5.2781  -12.1024   35.0195 C.ar      1 UNK        -0.1150 
      3 C3         -5.5259  -10.1603   36.4704 C.ar      1 UNK        -0.1150 
      4 C4         -8.0729   -6.0459   37.5369 C.ar      1 UNK        -0.1150 
      5 C5         -8.4333   -5.0041   36.6676 C.ar      1 UNK        -0.1150 
      6 C6         -4.8799  -12.8744   36.1279 C.ar      1 UNK        -0.1150 
      7 C7         -7.5338   -4.4051   39.2443 C.ar      1 UNK        -0.1150 
      8 C8         -4.3535   -9.2405   41.0044 C.2       1 UNK        -0.3376 
      9 C9         -5.1168  -10.9255   37.5843 C.ar      1 UNK         0.0000 
     10 C10        -7.6280   -5.7568   38.8383 C.ar      1 UNK         0.0850 
     11 C11        -8.3609   -3.6546   37.0642 C.ar      1 UNK         0.0850 
     12 C12        -7.8980   -3.3389   38.3781 C.ar      1 UNK         0.0850 
     13 C13        -4.7999  -12.2957   37.4106 C.ar      1 UNK         0.1800 
     14 C14        -5.6800   -9.0486   40.7036 C.2       1 UNK         0.1693 
     15 C15        -5.0421  -10.2696   38.8832 C.2       1 UNK         0.3009 
     16 C16        -7.0479   -6.9354   40.9820 C.2       1 UNK         0.5000 
     17 C17        -8.8787   -1.3783   36.3729 C.3       1 UNK         0.1100 
     18 C18        -7.4219   -1.7158   40.1089 C.3       1 UNK         0.1100 
     19 C19        -6.7032   -8.3230   41.5396 C.3       1 UNK        -0.0050 
     20 N20        -6.0532   -9.6314   39.4840 N.2       1 UNK        -0.4803 
     21 N21        -7.2693   -6.8634   39.6565 N.am      1 UNK        -0.3850 
     22 O22        -7.1398   -5.9857   41.7585 O.2       1 UNK        -0.5000 
     23 O23        -8.7579   -2.7624   36.0860 O.3       1 UNK        -0.2850 
     24 O24        -7.8003   -2.0182   38.7727 O.3       1 UNK        -0.2850 
     25 S25        -3.5254  -10.1518   39.7708 S.3       1 UNK         0.0010 
     26 Cl26       -4.3399  -13.3032   38.7385 Cl        1 UNK        -0.1800 
     27 H27        -5.9139  -10.1501   34.3428 H         1 UNK         0.1150 
     28 H28        -5.3376  -12.5543   34.0396 H         1 UNK         0.1150 
     29 H29        -5.7745   -9.1168   36.6008 H         1 UNK         0.1150 
     30 H30        -8.1487   -7.0672   37.1933 H         1 UNK         0.1150 
     31 H31        -8.7794   -5.2404   35.6724 H         1 UNK         0.1150 
     32 H32        -4.6391  -13.9193   35.9974 H         1 UNK         0.1150 
     33 H33        -7.1638   -4.1874   40.2309 H         1 UNK         0.1150 
     34 H34        -3.8098   -8.9016   41.8744 H         1 UNK         0.2317 
     35 H35        -9.2972   -0.8718   35.5034 H         1 UNK         0.0300 
     36 H36        -7.9070   -0.9255   36.5727 H         1 UNK         0.0300 
     37 H37        -9.5544   -1.1968   37.2098 H         1 UNK         0.0300 
     38 H38        -7.4509   -0.6359   40.2531 H         1 UNK         0.0300 
     39 H39        -6.4045   -2.0468   40.3213 H         1 UNK         0.0300 
     40 H40        -8.1082   -2.1608   40.8309 H         1 UNK         0.0300 
     41 H41        -7.6236   -8.9034   41.6055 H         1 UNK         0.0600 
     42 H42        -6.3450   -8.2076   42.5630 H         1 UNK         0.0600 
     43 H43        -7.1675   -7.7543   39.1851 H         1 UNK         0.3000 
@<TRIPOS>BOND
     1    1    2 ar   
     2    1    3 ar   
     3    1   27 1    
     4    2    6 ar   
     5    2   28 1    
     6    3    9 ar   
     7    3   29 1    
     8    4    5 ar   
     9    4   10 ar   
    10    4   30 1    
    11    5   11 ar   
    12    5   31 1    
    13    6   13 ar   
    14    6   32 1    
    15    7   10 ar   
    16    7   12 ar   
    17    7   33 1    
    18    8   14 2    
    19    8   25 1    
    20    8   34 1    
    21    9   13 ar   
    22    9   15 1    
    23   10   21 1    
    24   11   12 ar   
    25   11   23 1    
    26   12   24 1    
    27   13   26 1    
    28   14   19 1    
    29   14   20 1    
    30   15   20 2    
    31   15   25 1    
    32   16   19 1    
    33   16   21 am   BACKBONE|DICT|INTERRES
    34   16   22 2    
    35   17   23 1    
    36   17   35 1    
    37   17   36 1    
    38   17   37 1    
    39   18   24 1    
    40   18   38 1    
    41   18   39 1    
    42   18   40 1    
    43   19   41 1    
    44   19   42 1    
    45   21   43 1    
@<TRIPOS>SUBSTRUCTURE
     1 UNK         1 GROUP             0       ****    0 ROOT    
@<TRIPOS>MOLECULE
ZINC23380658_27
43   46    1
SMALL
USER_CHARGES


@<TRIPOS>ATOM
      1 C1         -6.4565  -13.6176   35.9615 C.ar      1 UNK        -0.1150 
      2 C2         -6.8469  -12.5370   35.1413 C.ar      1 UNK        -0.1150 
      3 C3         -6.5616  -13.5261   37.3672 C.ar      1 UNK        -0.1150 
      4 C4         -7.3452  -11.3551   35.7231 C.ar      1 UNK        -0.1150 
      5 C5        -10.1239   -8.4267   38.4024 C.ar      1 UNK        -0.1150 
      6 C6         -9.0904   -6.4355   39.3300 C.ar      1 UNK        -0.1150 
      7 C7         -7.4735  -11.6770   41.5629 C.ar      1 UNK         0.8740 
      8 C8         -7.0599  -12.3542   37.9809 C.ar      1 UNK        -0.0140 
      9 C9         -7.3092  -11.8916   39.3390 C.ar      1 UNK         0.5270 
     10 C10        -9.2876   -7.8281   39.3641 C.ar      1 UNK         0.2000 
     11 C11        -7.4425  -11.2836   37.1220 C.ar      1 UNK         0.1090 
     12 C12        -7.8365  -10.5832   39.2038 C.ar      1 UNK        -0.2600 
     13 C13       -10.7171   -7.6548   37.3764 C.ar      1 UNK         0.0850 
     14 C14        -9.6822   -5.6314   38.3226 C.ar      1 UNK         0.0850 
     15 C15       -10.4861   -6.2604   37.3278 C.ar      1 UNK         0.0850 
     16 C16        -8.1798   -9.8727   40.3590 C.ar      1 UNK         0.8640 
     17 C17       -11.6753   -9.6044   36.3367 C.3       1 UNK         0.1100 
     18 C18        -8.6981   -3.6313   39.2584 C.3       1 UNK         0.1100 
     19 C19       -10.4489   -4.4787   35.7068 C.3       1 UNK         0.1100 
     20 N20        -7.1312  -12.4591   40.5353 N.ar      1 UNK        -0.8390 
     21 N21        -7.9682  -10.4379   41.5511 N.ar      1 UNK        -0.8390 
     22 N22        -8.6887   -8.5710   40.3921 N.pl3     1 UNK        -0.7800 
     23 O23        -7.8997  -10.2218   37.8728 O.3       1 UNK        -0.1900 
     24 O24       -11.5199   -8.1940   36.3900 O.3       1 UNK        -0.2850 
     25 O25        -9.5253   -4.2585   38.2894 O.3       1 UNK        -0.2850 
     26 O26       -11.1093   -5.5896   36.2943 O.3       1 UNK        -0.2850 
     27 H27        -6.0729  -14.5221   35.5111 H         1 UNK         0.1150 
     28 H28        -6.7620  -12.6148   34.0668 H         1 UNK         0.1150 
     29 H29        -6.2603  -14.3543   37.9917 H         1 UNK         0.1150 
     30 H30        -7.6462  -10.5174   35.1109 H         1 UNK         0.1150 
     31 H31       -10.3022   -9.4881   38.4625 H         1 UNK         0.1150 
     32 H32        -8.4700   -5.9971   40.0950 H         1 UNK         0.1150 
     33 H33        -7.3274  -12.1081   42.5419 H         1 UNK        -0.0320 
     34 H34       -12.2862   -9.8652   35.4728 H         1 UNK         0.0300 
     35 H35       -12.1829   -9.9837   37.2244 H         1 UNK         0.0300 
     36 H36       -10.7141  -10.1084   36.2246 H         1 UNK         0.0300 
     37 H37        -8.6702   -2.5590   39.0642 H         1 UNK         0.0300 
     38 H38        -7.6729   -4.0002   39.2082 H         1 UNK         0.0300 
     39 H39        -9.0876   -3.7716   40.2674 H         1 UNK         0.0300 
     40 H40       -10.7955   -4.3621   34.6803 H         1 UNK         0.0300 
     41 H41        -9.3663   -4.6109   35.6741 H         1 UNK         0.0300 
     42 H42       -10.6868   -3.5552   36.2346 H         1 UNK         0.0300 
     43 H43        -8.6192   -8.1413   41.3003 H         1 UNK         0.3800 
@<TRIPOS>BOND
     1    1    2 ar   
     2    1    3 ar   
     3    1   27 1    
     4    2    4 ar   
     5    2   28 1    
     6    3    8 ar   
     7    3   29 1    
     8    4   11 ar   
     9    4   30 1    
    10    5   10 ar   
    11    5   13 ar   
    12    5   31 1    
    13    6   10 ar   
    14    6   14 ar   
    15    6   32 1    
    16    7   20 ar   
    17    7   21 ar   
    18    7   33 1    
    19    8    9 1    
    20    8   11 ar   
    21    9   12 ar   
    22    9   20 ar   
    23   10   22 1    
    24   11   23 1    
    25   12   16 ar   
    26   12   23 1    
    27   13   15 ar   
    28   13   24 1    
    29   14   15 ar   
    30   14   25 1    
    31   15   26 1    
    32   16   21 ar   
    33   16   22 1    
    34   17   24 1    
    35   17   34 1    
    36   17   35 1    
    37   17   36 1    
    38   18   25 1    
    39   18   37 1    
    40   18   38 1    
    41   18   39 1    
    42   19   26 1    
    43   19   40 1    
    44   19   41 1    
    45   19   42 1    
    46   22   43 1    
@<TRIPOS>SUBSTRUCTURE
     1 UNK         1 GROUP             0       ****    0 ROOT    
@<TRIPOS>MOLECULE
ZINC23495012_209
44   46    1
SMALL
USER_CHARGES


@<TRIPOS>ATOM
      1 C1         -4.3031  -12.2756   35.2733 C.ar      1 UNK        -0.1150 
      2 C2         -3.5407  -12.4326   36.4448 C.ar      1 UNK        -0.1150 
      3 C3         -5.5792  -11.6887   35.3455 C.ar      1 UNK        -0.1150 
      4 C4         -4.0566  -12.0038   37.6840 C.ar      1 UNK        -0.1150 
      5 C5         -6.0889  -11.2621   36.5880 C.ar      1 UNK        -0.1150 
      6 C6         -9.8154   -6.6303   38.6207 C.ar      1 UNK        -0.1150 
      7 C7         -8.2282   -4.9712   39.4321 C.ar      1 UNK        -0.1150 
      8 C8         -5.3393  -11.4122   37.7795 C.ar      1 UNK         0.0000 
      9 C9         -8.7416   -6.2845   39.4717 C.ar      1 UNK        -0.1150 
     10 C10        -9.8449   -4.3667   37.7107 C.ar      1 UNK        -0.1150 
     11 C11       -10.3749   -5.6777   37.7358 C.ar      1 UNK         0.0850 
     12 C12        -8.7744   -3.9999   38.5598 C.ar      1 UNK         0.0850 
     13 C13        -5.8832  -10.9627   39.0825 C.2       1 UNK         0.6647 
     14 C14        -7.1654  -10.1461   40.4901 C.2       1 UNK         0.5486 
     15 C15        -8.1309   -7.2705   40.4054 C.2       1 UNK         0.6250 
     16 C16       -10.4454   -3.3403   36.7617 C.3       1 UNK        -0.0650 
     17 C17       -11.9454   -7.2763   36.8528 C.3       1 UNK         0.1100 
     18 C18        -7.2417   -2.3113   39.3345 C.3       1 UNK         0.1100 
     19 C19        -8.2846   -9.5000   41.2485 C.3       1 UNK         0.3050 
     20 N20        -7.1098  -10.3799   39.1785 N.2       1 UNK        -0.7040 
     21 N21        -5.2084  -11.1187   40.2154 N.2       1 UNK        -0.4268 
     22 O22        -7.1226   -7.0417   41.0747 O.2       1 UNK        -0.4300 
     23 O23        -6.0718  -10.5662   41.1732 O.3       1 UNK        -0.1975 
     24 O24       -11.4254   -5.9555   36.8844 O.3       1 UNK        -0.2850 
     25 O25        -8.3179   -2.6990   38.4927 O.3       1 UNK        -0.2850 
     26 O26        -8.8005   -8.4344   40.4600 O.3       1 UNK        -0.3300 
     27 H27        -3.9098  -12.6031   34.3215 H         1 UNK         0.1150 
     28 H28        -2.5590  -12.8813   36.3953 H         1 UNK         0.1150 
     29 H29        -6.1689  -11.5643   34.4487 H         1 UNK         0.1150 
     30 H30        -3.4572  -12.1307   38.5742 H         1 UNK         0.1150 
     31 H31        -7.0707  -10.8126   36.6273 H         1 UNK         0.1150 
     32 H32       -10.2008   -7.6372   38.6507 H         1 UNK         0.1150 
     33 H33        -7.4075   -4.7258   40.0892 H         1 UNK         0.1150 
     34 H34       -11.3309   -2.8930   37.2122 H         1 UNK         0.0600 
     35 H35        -9.7422   -2.5433   36.5223 H         1 UNK         0.0600 
     36 H36       -10.7367   -3.8027   35.8187 H         1 UNK         0.0600 
     37 H37       -12.7458   -7.3285   36.1149 H         1 UNK         0.0300 
     38 H38       -12.3675   -7.5618   37.8171 H         1 UNK         0.0300 
     39 H39       -11.1820   -7.9990   36.5613 H         1 UNK         0.0300 
     40 H40        -7.0056   -1.2625   39.1555 H         1 UNK         0.0300 
     41 H41        -6.3420   -2.8913   39.1250 H         1 UNK         0.0300 
     42 H42        -7.5033   -2.4141   40.3885 H         1 UNK         0.0300 
     43 H43        -9.0678  -10.2376   41.4205 H         1 UNK         0.0300 
     44 H44        -7.9318   -9.1541   42.2211 H         1 UNK         0.0300 
@<TRIPOS>BOND
     1    1    2 ar   
     2    1    3 ar   
     3    1   27 1    
     4    2    4 ar   
     5    2   28 1    
     6    3    5 ar   
     7    3   29 1    
     8    4    8 ar   
     9    4   30 1    
    10    5    8 ar   
    11    5   31 1    
    12    6    9 ar   
    13    6   11 ar   
    14    6   32 1    
    15    7    9 ar   
    16    7   12 ar   
    17    7   33 1    
    18    8   13 1    
    19    9   15 1    
    20   10   11 ar   
    21   10   12 ar   
    22   10   16 1    
    23   11   24 1    
    24   12   25 1    
    25   13   20 1    
    26   13   21 2    
    27   14   19 1    
    28   14   20 2    
    29   14   23 1    
    30   15   22 2    
    31   15   26 1    
    32   16   34 1    
    33   16   35 1    
    34   16   36 1    
    35   17   24 1    
    36   17   37 1    
    37   17   38 1    
    38   17   39 1    
    39   18   25 1    
    40   18   40 1    
    41   18   41 1    
    42   18   42 1    
    43   19   26 1    
    44   19   43 1    
    45   19   44 1    
    46   21   23 1    
@<TRIPOS>SUBSTRUCTURE
     1 UNK         1 GROUP             0       ****    0 ROOT    
@<TRIPOS>MOLECULE
ZINC23548763_41
52   55    1
SMALL
USER_CHARGES


@<TRIPOS>ATOM
      1 C1        -15.0416  -23.6749   34.0713 C.ar      1 UNK         0.0055 
      2 C2        -13.7037  -23.3116   33.8251 C.ar      1 UNK        -0.3011 
      3 C3        -15.6898  -23.2284   35.2398 C.ar      1 UNK        -0.4461 
      4 C4        -13.0140  -22.5015   34.7475 C.ar      1 UNK        -0.1407 
      5 C5        -18.2129  -17.3570   38.5193 C.ar      1 UNK        -0.1150 
      6 C6        -16.6581  -15.5130   38.8518 C.ar      1 UNK        -0.1150 
      7 C7        -17.1667  -16.7627   39.2557 C.ar      1 UNK        -0.1150 
      8 C8        -18.1651  -15.5047   36.9346 C.ar      1 UNK        -0.1150 
      9 C9        -15.0251  -22.4158   36.1819 C.ar      1 UNK         0.6314 
     10 C10       -18.7139  -16.7426   37.3472 C.ar      1 UNK         0.0850 
     11 C11       -17.1476  -14.8736   37.6883 C.ar      1 UNK         0.0850 
     12 C12       -13.6714  -22.0615   35.9114 C.ar      1 UNK        -0.1027 
     13 C13       -14.6323  -21.1860   38.0076 C.2       1 UNK         0.2008 
     14 C14       -16.6334  -17.4072   40.5048 C.2       1 UNK         0.6150 
     15 C15       -16.0171  -20.9252   41.5904 C.3       1 UNK        -0.1200 
     16 C16       -15.1743  -21.5229   40.4528 C.3       1 UNK        -0.1200 
     17 C17       -15.8688  -19.3984   41.7048 C.3       1 UNK        -0.0500 
     18 C18       -16.0192  -19.4443   39.1935 C.3       1 UNK        -0.0500 
     19 C19       -14.9204  -20.5165   39.3147 C.3       1 UNK         0.0550 
     20 C20       -18.6873  -14.8254   35.6780 C.3       1 UNK        -0.0650 
     21 C21       -20.2555  -18.5503   36.9518 C.3       1 UNK         0.1100 
     22 C22       -15.7009  -12.9777   38.0100 C.3       1 UNK         0.1100 
     23 N23       -15.5555  -21.9143   37.3656 N.2       1 UNK        -0.5991 
     24 N24       -16.2375  -18.7052   40.4554 N.am      1 UNK        -0.1400 
     25 O25       -16.5624  -16.7313   41.5312 O.2       1 UNK        -0.5000 
     26 O26       -19.7235  -17.2870   36.5797 O.3       1 UNK        -0.2850 
     27 O27       -16.6852  -13.6528   37.2406 O.3       1 UNK        -0.2850 
     28 S28       -13.0555  -21.0532   37.2163 S.3       1 UNK        -0.0839 
     29 H29       -15.5723  -24.2964   33.3635 H         1 UNK         0.1296 
     30 H30       -13.2076  -23.6553   32.9268 H         1 UNK         0.1749 
     31 H31       -16.7146  -23.5051   35.4313 H         1 UNK         0.2114 
     32 H32       -11.9877  -22.2159   34.5699 H         1 UNK         0.2050 
     33 H33       -18.6213  -18.2893   38.8767 H         1 UNK         0.1150 
     34 H34       -15.8849  -15.0647   39.4578 H         1 UNK         0.1150 
     35 H35       -17.0686  -21.1561   41.4116 H         1 UNK         0.0600 
     36 H36       -15.7628  -21.4059   42.5357 H         1 UNK         0.0600 
     37 H37       -14.2186  -21.8909   40.8278 H         1 UNK         0.0600 
     38 H38       -15.7022  -22.3987   40.0719 H         1 UNK         0.0600 
     39 H39       -16.4945  -19.0552   42.5317 H         1 UNK         0.0600 
     40 H40       -14.8433  -19.1334   41.9668 H         1 UNK         0.0600 
     41 H41       -15.7323  -18.7639   38.3897 H         1 UNK         0.0600 
     42 H42       -16.9534  -19.9176   38.8895 H         1 UNK         0.0600 
     43 H43       -14.0102  -19.9763   39.5807 H         1 UNK         0.0600 
     44 H44       -19.4396  -14.0832   35.9436 H         1 UNK         0.0600 
     45 H45       -17.8826  -14.3215   35.1430 H         1 UNK         0.0600 
     46 H46       -19.1363  -15.5362   34.9850 H         1 UNK         0.0600 
     47 H47       -21.0162  -18.8467   36.2297 H         1 UNK         0.0300 
     48 H48       -20.7319  -18.5089   37.9322 H         1 UNK         0.0300 
     49 H49       -19.4854  -19.3234   36.9538 H         1 UNK         0.0300 
     50 H50       -15.4657  -12.0251   37.5357 H         1 UNK         0.0300 
     51 H51       -14.7763  -13.5536   38.0678 H         1 UNK         0.0300 
     52 H52       -16.0593  -12.7641   39.0180 H         1 UNK         0.0300 
@<TRIPOS>BOND
     1    1    2 ar   
     2    1    3 ar   
     3    1   29 1    
     4    2    4 ar   
     5    2   30 1    
     6    3    9 ar   
     7    3   31 1    
     8    4   12 ar   
     9    4   32 1    
    10    5    7 ar   
    11    5   10 ar   
    12    5   33 1    
    13    6    7 ar   
    14    6   11 ar   
    15    6   34 1    
    16    7   14 1    
    17    8   10 ar   
    18    8   11 ar   
    19    8   20 1    
    20    9   12 ar   
    21    9   23 1    
    22   10   26 1    
    23   11   27 1    
    24   12   28 1    
    25   13   19 1    
    26   13   23 2    
    27   13   28 1    
    28   14   24 am   BACKBONE|DICT|INTERRES
    29   14   25 2    
    30   15   16 1    
    31   15   17 1    
    32   15   35 1    
    33   15   36 1    
    34   16   19 1    
    35   16   37 1    
    36   16   38 1    
    37   17   24 1    
    38   17   39 1    
    39   17   40 1    
    40   18   19 1    
    41   18   24 1    
    42   18   41 1    
    43   18   42 1    
    44   19   43 1    
    45   20   44 1    
    46   20   45 1    
    47   20   46 1    
    48   21   26 1    
    49   21   47 1    
    50   21   48 1    
    51   21   49 1    
    52   22   27 1    
    53   22   50 1    
    54   22   51 1    
    55   22   52 1    
@<TRIPOS>SUBSTRUCTURE
     1 UNK         1 GROUP             0       ****    0 ROOT    
@<TRIPOS>MOLECULE
ZINC23548765_77
52   55    1
SMALL
USER_CHARGES


@<TRIPOS>ATOM
      1 C1        -10.0310  -17.2303   33.4970 C.ar      1 UNK         0.0055 
      2 C2         -8.6439  -17.3194   33.7228 C.ar      1 UNK        -0.3011 
      3 C3        -10.8827  -16.7630   34.5174 C.ar      1 UNK        -0.4461 
      4 C4         -8.1084  -16.9396   34.9684 C.ar      1 UNK        -0.1407 
      5 C5        -13.0976  -12.2224   38.5814 C.ar      1 UNK        -0.1150 
      6 C6        -12.2819  -10.0535   39.3263 C.ar      1 UNK        -0.1150 
      7 C7        -12.3900  -11.4442   39.5213 C.ar      1 UNK        -0.1150 
      8 C8        -13.5163  -10.2363   37.2310 C.ar      1 UNK        -0.1150 
      9 C9        -10.3757  -16.3772   35.7757 C.ar      1 UNK         0.6314 
     10 C10       -13.6458  -11.6327   37.4183 C.ar      1 UNK         0.0850 
     11 C11       -12.8358   -9.4360   38.1794 C.ar      1 UNK         0.0850 
     12 C12        -8.9686  -16.4739   35.9800 C.ar      1 UNK        -0.1027 
     13 C13       -10.2967  -15.6386   37.8850 C.2       1 UNK         0.2008 
     14 C14       -11.8154  -12.0610   40.7654 C.2       1 UNK         0.6150 
     15 C15       -10.9582  -15.3467   41.7050 C.3       1 UNK        -0.1200 
     16 C16       -10.4674  -15.9741   40.3872 C.3       1 UNK        -0.1200 
     17 C17       -10.5097  -13.8773   41.8253 C.3       1 UNK        -0.0500 
     18 C18       -10.3760  -13.6304   39.4072 C.3       1 UNK        -0.0500 
     19 C19       -10.8200  -15.0889   39.1747 C.3       1 UNK         0.0550 
     20 C20       -14.1114   -9.5909   35.9888 C.3       1 UNK        -0.0650 
     21 C21       -14.3203  -13.7703   36.5419 C.3       1 UNK         0.1100 
     22 C22       -12.1032   -7.2556   38.8889 C.3       1 UNK         0.1100 
     23 N23       -11.1117  -15.9040   36.8570 N.2       1 UNK        -0.5991 
     24 N24       -10.9796  -13.1261   40.6513 N.am      1 UNK        -0.1400 
     25 O25       -12.1164  -11.5682   41.8520 O.2       1 UNK        -0.5000 
     26 O26       -14.3087  -12.3529   36.4454 O.3       1 UNK        -0.2850 
     27 O27       -12.7431   -8.0822   37.9279 O.3       1 UNK        -0.2850 
     28 S28        -8.5726  -15.9349   37.6077 S.3       1 UNK        -0.0839 
     29 H29       -10.4430  -17.5199   32.5404 H         1 UNK         0.1296 
     30 H30        -7.9913  -17.6784   32.9380 H         1 UNK         0.1749 
     31 H31       -11.9454  -16.6936   34.3474 H         1 UNK         0.2114 
     32 H32        -7.0460  -17.0017   35.1529 H         1 UNK         0.2050 
     33 H33       -13.2101  -13.2770   38.7724 H         1 UNK         0.1150 
     34 H34       -11.7637   -9.4794   40.0797 H         1 UNK         0.1150 
     35 H35       -12.0472  -15.3981   41.7517 H         1 UNK         0.0600 
     36 H36       -10.5878  -15.9228   42.5539 H         1 UNK         0.0600 
     37 H37        -9.3862  -16.1053   40.4433 H         1 UNK         0.0600 
     38 H38       -10.8928  -16.9708   40.2618 H         1 UNK         0.0600 
     39 H39       -10.8821  -13.4652   42.7651 H         1 UNK         0.0600 
     40 H40        -9.4224  -13.8129   41.8840 H         1 UNK         0.0600 
     41 H41        -9.2902  -13.5823   39.5003 H         1 UNK         0.0600 
     42 H42       -10.6077  -13.0211   38.5344 H         1 UNK         0.0600 
     43 H43       -11.9075  -15.0934   39.0932 H         1 UNK         0.0600 
     44 H44       -14.3857   -8.5512   36.1659 H         1 UNK         0.0600 
     45 H45       -13.3891   -9.6216   35.1736 H         1 UNK         0.0600 
     46 H46       -15.0147  -10.1087   35.6669 H         1 UNK         0.0600 
     47 H47       -14.8131  -14.1869   35.6636 H         1 UNK         0.0300 
     48 H48       -14.8738  -14.1058   37.4197 H         1 UNK         0.0300 
     49 H49       -13.3085  -14.1758   36.5739 H         1 UNK         0.0300 
     50 H50       -11.0552   -7.5302   39.0162 H         1 UNK         0.0300 
     51 H51       -12.6105   -7.2995   39.8538 H         1 UNK         0.0300 
     52 H52       -12.1330   -6.2206   38.5485 H         1 UNK         0.0300 
@<TRIPOS>BOND
     1    1    2 ar   
     2    1    3 ar   
     3    1   29 1    
     4    2    4 ar   
     5    2   30 1    
     6    3    9 ar   
     7    3   31 1    
     8    4   12 ar   
     9    4   32 1    
    10    5    7 ar   
    11    5   10 ar   
    12    5   33 1    
    13    6    7 ar   
    14    6   11 ar   
    15    6   34 1    
    16    7   14 1    
    17    8   10 ar   
    18    8   11 ar   
    19    8   20 1    
    20    9   12 ar   
    21    9   23 1    
    22   10   26 1    
    23   11   27 1    
    24   12   28 1    
    25   13   19 1    
    26   13   23 2    
    27   13   28 1    
    28   14   24 am   BACKBONE|DICT|INTERRES
    29   14   25 2    
    30   15   16 1    
    31   15   17 1    
    32   15   35 1    
    33   15   36 1    
    34   16   19 1    
    35   16   37 1    
    36   16   38 1    
    37   17   24 1    
    38   17   39 1    
    39   17   40 1    
    40   18   19 1    
    41   18   24 1    
    42   18   41 1    
    43   18   42 1    
    44   19   43 1    
    45   20   44 1    
    46   20   45 1    
    47   20   46 1    
    48   21   26 1    
    49   21   47 1    
    50   21   48 1    
    51   21   49 1    
    52   22   27 1    
    53   22   50 1    
    54   22   51 1    
    55   22   52 1    
@<TRIPOS>SUBSTRUCTURE
     1 UNK         1 GROUP             0       ****    0 ROOT    
@<TRIPOS>MOLECULE
ZINC23654671_5
47   49    1
SMALL
USER_CHARGES


@<TRIPOS>ATOM
      1 C1        -13.1627  -19.4659   36.5793 C.ar      1 UNK        -0.1150 
      2 C2        -14.0822  -18.4559   36.9181 C.ar      1 UNK        -0.1150 
      3 C3        -17.9253  -15.4690   37.5735 C.ar      1 UNK        -0.1150 
      4 C4        -16.5817  -14.0304   39.0083 C.ar      1 UNK        -0.1150 
      5 C5        -13.6721  -20.6232   38.6558 C.ar      1 UNK        -0.1150 
      6 C6        -16.7219  -15.2185   38.2652 C.ar      1 UNK        -0.1150 
      7 C7        -14.5963  -19.6140   38.9952 C.ar      1 UNK        -0.1150 
      8 C8        -12.9506  -20.5508   37.4500 C.ar      1 UNK        -0.1150 
      9 C9        -18.8699  -13.3988   38.4500 C.ar      1 UNK        -0.1150 
     10 C10       -14.8017  -18.5005   38.1407 C.ar      1 UNK        -0.0383 
     11 C11       -19.0118  -14.5671   37.6644 C.ar      1 UNK         0.0850 
     12 C12       -17.6532  -13.1118   39.1139 C.ar      1 UNK         0.0850 
     13 C13       -15.5590  -16.1654   38.1537 C.2       1 UNK         0.6150 
     14 C14       -15.3955  -19.7376   40.2710 C.3       1 UNK        -0.0050 
     15 C15       -16.8109  -19.2285   40.0216 C.3       1 UNK        -0.1200 
     16 C16       -16.8066  -17.7816   39.5001 C.3       1 UNK        -0.0500 
     17 C17       -11.9583  -21.6387   37.0957 C.3       1 UNK        -0.0650 
     18 C18       -20.0340  -12.4253   38.5561 C.3       1 UNK        -0.0650 
     19 C19       -20.3621  -15.8978   36.1797 C.3       1 UNK         0.1100 
     20 C20       -16.3437  -11.6020   40.4555 C.3       1 UNK         0.1100 
     21 N21       -15.7481  -17.4715   38.5062 N.am      1 UNK        -0.0317 
     22 O22       -14.4779  -15.6980   37.7923 O.2       1 UNK        -0.5000 
     23 O23       -20.2158  -14.7616   37.0187 O.3       1 UNK        -0.2850 
     24 O24       -17.5756  -11.9365   39.8328 O.3       1 UNK        -0.2850 
     25 H25       -12.6209  -19.3981   35.6471 H         1 UNK         0.1150 
     26 H26       -14.2193  -17.6426   36.2203 H         1 UNK         0.1150 
     27 H27       -17.9906  -16.3650   36.9752 H         1 UNK         0.1150 
     28 H28       -15.6333  -13.8482   39.4917 H         1 UNK         0.1150 
     29 H29       -13.5198  -21.4621   39.3195 H         1 UNK         0.1150 
     30 H30       -15.4220  -20.7754   40.6056 H         1 UNK         0.0600 
     31 H31       -14.9066  -19.1572   41.0546 H         1 UNK         0.0600 
     32 H32       -17.2909  -19.8738   39.2840 H         1 UNK         0.0600 
     33 H33       -17.4099  -19.3019   40.9299 H         1 UNK         0.0600 
     34 H34       -17.7966  -17.5788   39.0940 H         1 UNK         0.0600 
     35 H35       -16.6775  -17.1139   40.3545 H         1 UNK         0.0600 
     36 H36       -11.1199  -21.6242   37.7924 H         1 UNK         0.0600 
     37 H37       -12.4336  -22.6185   37.1481 H         1 UNK         0.0600 
     38 H38       -11.5653  -21.5066   36.0873 H         1 UNK         0.0600 
     39 H39       -20.0022  -11.8573   39.4854 H         1 UNK         0.0600 
     40 H40       -20.0056  -11.7229   37.7237 H         1 UNK         0.0600 
     41 H41       -20.9904  -12.9470   38.5328 H         1 UNK         0.0600 
     42 H42       -19.6359  -15.8885   35.3657 H         1 UNK         0.0300 
     43 H43       -21.3561  -15.8881   35.7328 H         1 UNK         0.0300 
     44 H44       -20.2642  -16.8262   36.7439 H         1 UNK         0.0300 
     45 H45       -16.0664  -12.3374   41.2118 H         1 UNK         0.0300 
     46 H46       -16.4442  -10.6386   40.9551 H         1 UNK         0.0300 
     47 H47       -15.5394  -11.5106   39.7244 H         1 UNK         0.0300 
@<TRIPOS>BOND
     1    1    2 ar   
     2    1    8 ar   
     3    1   25 1    
     4    2   10 ar   
     5    2   26 1    
     6    3    6 ar   
     7    3   11 ar   
     8    3   27 1    
     9    4    6 ar   
    10    4   12 ar   
    11    4   28 1    
    12    5    7 ar   
    13    5    8 ar   
    14    5   29 1    
    15    6   13 1    
    16    7   10 ar   
    17    7   14 1    
    18    8   17 1    
    19    9   11 ar   
    20    9   12 ar   
    21    9   18 1    
    22   10   21 1    
    23   11   23 1    
    24   12   24 1    
    25   13   21 am   BACKBONE|DICT|INTERRES
    26   13   22 2    
    27   14   15 1    
    28   14   30 1    
    29   14   31 1    
    30   15   16 1    
    31   15   32 1    
    32   15   33 1    
    33   16   21 1    
    34   16   34 1    
    35   16   35 1    
    36   17   36 1    
    37   17   37 1    
    38   17   38 1    
    39   18   39 1    
    40   18   40 1    
    41   18   41 1    
    42   19   23 1    
    43   19   42 1    
    44   19   43 1    
    45   19   44 1    
    46   20   24 1    
    47   20   45 1    
    48   20   46 1    
    49   20   47 1    
@<TRIPOS>SUBSTRUCTURE
     1 UNK         1 GROUP             0       ****    0 ROOT    
@<TRIPOS>MOLECULE
ZINC23895904_40
48   50    1
SMALL
USER_CHARGES


@<TRIPOS>ATOM
      1 C1         -4.9420  -10.7749   34.8648 C.ar      1 UNK        -0.1150 
      2 C2         -4.2579  -11.2430   36.0033 C.ar      1 UNK        -0.1150 
      3 C3         -6.0524   -9.9214   35.0126 C.ar      1 UNK        -0.1150 
      4 C4         -4.6841  -10.8576   37.2894 C.ar      1 UNK        -0.1150 
      5 C5         -6.4789   -9.5366   36.2987 C.ar      1 UNK        -0.1150 
      6 C6         -7.3104   -4.5244   39.5963 C.ar      1 UNK        -0.1150 
      7 C7         -8.3265   -6.5298   38.6614 C.ar      1 UNK        -0.1150 
      8 C8         -7.5223   -5.9180   39.6453 C.ar      1 UNK        -0.1150 
      9 C9         -5.7995  -10.0070   37.4433 C.ar      1 UNK        -0.0418 
     10 C10        -7.8457   -3.7425   38.5417 C.ar      1 UNK         0.0850 
     11 C11        -8.5997   -4.3841   37.5277 C.ar      1 UNK         0.0850 
     12 C12        -8.8507   -5.7708   37.6024 C.ar      1 UNK         0.1800 
     13 C13        -6.9517   -6.7165   40.7822 C.2       1 UNK         0.6150 
     14 C14        -5.7541   -8.7497   41.5242 C.3       1 UNK        -0.0500 
     15 C15        -5.6663   -8.1865   39.1842 C.3       1 UNK        -0.0500 
     16 C16        -6.3066  -10.1347   41.1463 C.3       1 UNK         0.1400 
     17 C17        -6.2519   -9.5650   38.8241 C.3       1 UNK         0.2118 
     18 C18        -8.9228   -2.6576   34.3280 C.3       1 UNK        -0.1800 
     19 C19        -7.0226   -1.6996   39.5127 C.3       1 UNK         0.1100 
     20 C20        -8.1740   -3.2040   35.5443 C.3       1 UNK         0.1400 
     21 N21        -6.1811   -7.7937   40.5000 N.am      1 UNK        -0.1400 
     22 O22        -7.2001   -6.3592   41.9319 O.2       1 UNK        -0.5000 
     23 O23        -5.8593  -10.4900   39.8392 O.3       1 UNK        -0.4000 
     24 O24        -7.6812   -2.3757   38.4519 O.3       1 UNK        -0.2850 
     25 O25        -9.1316   -3.6736   36.4805 O.3       1 UNK        -0.2850 
     26 Cl26       -9.7831   -6.5647   36.3850 Cl        1 UNK        -0.1800 
     27 H27        -4.6152  -11.0711   33.8783 H         1 UNK         0.1150 
     28 H28        -3.4063  -11.8986   35.8921 H         1 UNK         0.1150 
     29 H29        -6.5778   -9.5620   34.1393 H         1 UNK         0.1150 
     30 H30        -4.1552  -11.2183   38.1601 H         1 UNK         0.1150 
     31 H31        -7.3309   -8.8799   36.4021 H         1 UNK         0.1150 
     32 H32        -6.7291   -4.0761   40.3886 H         1 UNK         0.1150 
     33 H33        -8.5444   -7.5858   38.7087 H         1 UNK         0.1150 
     34 H34        -6.0996   -8.4807   42.5239 H         1 UNK         0.0600 
     35 H35        -4.6648   -8.7738   41.5732 H         1 UNK         0.0600 
     36 H36        -4.5779   -8.2481   39.2276 H         1 UNK         0.0600 
     37 H37        -5.8775   -7.4601   38.4008 H         1 UNK         0.0600 
     38 H38        -5.9593  -10.8867   41.8551 H         1 UNK         0.0300 
     39 H39        -7.3972  -10.1428   41.1825 H         1 UNK         0.0300 
     40 H40        -7.3419   -9.5212   38.8097 H         1 UNK         0.0300 
     41 H41        -9.5386   -3.4320   33.8700 H         1 UNK         0.0600 
     42 H42        -9.5776   -1.8342   34.6138 H         1 UNK         0.0600 
     43 H43        -8.2284   -2.2893   33.5732 H         1 UNK         0.0600 
     44 H44        -7.0263   -0.6283   39.3121 H         1 UNK         0.0300 
     45 H45        -5.9820   -2.0141   39.6007 H         1 UNK         0.0300 
     46 H46        -7.5316   -1.8570   40.4647 H         1 UNK         0.0300 
     47 H47        -7.5518   -2.4194   35.9744 H         1 UNK         0.0300 
     48 H48        -7.5136   -4.0172   35.2379 H         1 UNK         0.0300 
@<TRIPOS>BOND
     1    1    2 ar   
     2    1    3 ar   
     3    1   27 1    
     4    2    4 ar   
     5    2   28 1    
     6    3    5 ar   
     7    3   29 1    
     8    4    9 ar   
     9    4   30 1    
    10    5    9 ar   
    11    5   31 1    
    12    6    8 ar   
    13    6   10 ar   
    14    6   32 1    
    15    7    8 ar   
    16    7   12 ar   
    17    7   33 1    
    18    8   13 1    
    19    9   17 1    
    20   10   11 ar   
    21   10   24 1    
    22   11   12 ar   
    23   11   25 1    
    24   12   26 1    
    25   13   21 am   BACKBONE|DICT|INTERRES
    26   13   22 2    
    27   14   16 1    
    28   14   21 1    
    29   14   34 1    
    30   14   35 1    
    31   15   17 1    
    32   15   21 1    
    33   15   36 1    
    34   15   37 1    
    35   16   23 1    
    36   16   38 1    
    37   16   39 1    
    38   17   23 1    
    39   17   40 1    
    40   18   20 1    
    41   18   41 1    
    42   18   42 1    
    43   18   43 1    
    44   19   24 1    
    45   19   44 1    
    46   19   45 1    
    47   19   46 1    
    48   20   25 1    
    49   20   47 1    
    50   20   48 1    
@<TRIPOS>SUBSTRUCTURE
     1 UNK         1 GROUP             0       ****    0 ROOT    
@<TRIPOS>MOLECULE
ZINC23896601_10
45   47    1
SMALL
USER_CHARGES


@<TRIPOS>ATOM
      1 C1        -10.2644  -17.1643   35.2182 C.ar      1 UNK        -0.1150 
      2 C2         -9.9250  -17.8925   36.3747 C.ar      1 UNK        -0.1150 
      3 C3        -11.1644  -16.0850   35.3060 C.ar      1 UNK        -0.1150 
      4 C4        -10.4867  -17.5430   37.6185 C.ar      1 UNK        -0.1150 
      5 C5        -11.7259  -15.7359   36.5497 C.ar      1 UNK        -0.1150 
      6 C6        -13.9148  -12.9302   38.8782 C.ar      1 UNK        -0.1150 
      7 C7        -12.6954  -11.0821   39.8993 C.ar      1 UNK        -0.1150 
      8 C8        -13.7997  -10.7750   37.7551 C.ar      1 UNK        -0.1150 
      9 C9        -13.1141  -12.4270   39.9262 C.ar      1 UNK        -0.1150 
     10 C10       -11.3938  -16.4653   37.7120 C.ar      1 UNK        -0.0418 
     11 C11       -14.2579  -12.1075   37.7795 C.ar      1 UNK         0.0850 
     12 C12       -13.0228  -10.2462   38.8157 C.ar      1 UNK         0.0850 
     13 C13       -12.7424  -13.2991   41.0887 C.2       1 UNK         0.6150 
     14 C14       -11.8009  -15.4581   41.8453 C.3       1 UNK        -0.0500 
     15 C15       -11.3575  -14.7663   39.5807 C.3       1 UNK        -0.0500 
     16 C16       -12.4197  -16.7580   41.3040 C.3       1 UNK         0.1400 
     17 C17       -11.9959  -16.0640   39.0495 C.3       1 UNK         0.2118 
     18 C18       -15.5932  -13.8248   36.7590 C.3       1 UNK         0.1100 
     19 C19       -12.8752   -8.0809   37.7905 C.3       1 UNK         0.1100 
     20 N20       -12.0103  -14.4112   40.8445 N.am      1 UNK        -0.1400 
     21 O21       -13.1281  -12.9866   42.2135 O.2       1 UNK        -0.5000 
     22 O22       -11.8349  -17.0797   40.0425 O.3       1 UNK        -0.4000 
     23 O23       -15.0207  -12.5255   36.7108 O.3       1 UNK        -0.2850 
     24 O24       -12.5532   -8.9518   38.8649 O.3       1 UNK        -0.2850 
     25 H25        -9.8325  -17.4322   34.2647 H         1 UNK         0.1150 
     26 H26        -9.2329  -18.7196   36.3094 H         1 UNK         0.1150 
     27 H27       -11.4219  -15.5229   34.4200 H         1 UNK         0.1150 
     28 H28       -10.2192  -18.1057   38.5014 H         1 UNK         0.1150 
     29 H29       -12.4088  -14.9009   36.6093 H         1 UNK         0.1150 
     30 H30       -14.2574  -13.9511   38.9397 H         1 UNK         0.1150 
     31 H31       -12.1072  -10.6868   40.7159 H         1 UNK         0.1150 
     32 H32       -14.0733  -10.1697   36.9050 H         1 UNK         0.1150 
     33 H33       -12.2466  -15.2138   42.8111 H         1 UNK         0.0600 
     34 H34       -10.7331  -15.5888   42.0249 H         1 UNK         0.0600 
     35 H35       -10.2924  -14.9229   39.7569 H         1 UNK         0.0600 
     36 H36       -11.4098  -13.9749   38.8336 H         1 UNK         0.0600 
     37 H37       -12.2392  -17.5799   41.9973 H         1 UNK         0.0300 
     38 H38       -13.5015  -16.6604   41.1996 H         1 UNK         0.0300 
     39 H39       -13.0645  -15.9176   38.8862 H         1 UNK         0.0300 
     40 H40       -16.2028  -13.9816   35.8692 H         1 UNK         0.0300 
     41 H41       -16.2429  -13.9423   37.6275 H         1 UNK         0.0300 
     42 H42       -14.8273  -14.6009   36.7734 H         1 UNK         0.0300 
     43 H43       -12.4655   -8.4441   36.8471 H         1 UNK         0.0300 
     44 H44       -12.4421   -7.0989   37.9812 H         1 UNK         0.0300 
     45 H45       -13.9538   -7.9511   37.6912 H         1 UNK         0.0300 
@<TRIPOS>BOND
     1    1    2 ar   
     2    1    3 ar   
     3    1   25 1    
     4    2    4 ar   
     5    2   26 1    
     6    3    5 ar   
     7    3   27 1    
     8    4   10 ar   
     9    4   28 1    
    10    5   10 ar   
    11    5   29 1    
    12    6    9 ar   
    13    6   11 ar   
    14    6   30 1    
    15    7    9 ar   
    16    7   12 ar   
    17    7   31 1    
    18    8   11 ar   
    19    8   12 ar   
    20    8   32 1    
    21    9   13 1    
    22   10   17 1    
    23   11   23 1    
    24   12   24 1    
    25   13   20 am   BACKBONE|DICT|INTERRES
    26   13   21 2    
    27   14   16 1    
    28   14   20 1    
    29   14   33 1    
    30   14   34 1    
    31   15   17 1    
    32   15   20 1    
    33   15   35 1    
    34   15   36 1    
    35   16   22 1    
    36   16   37 1    
    37   16   38 1    
    38   17   22 1    
    39   17   39 1    
    40   18   23 1    
    41   18   40 1    
    42   18   41 1    
    43   18   42 1    
    44   19   24 1    
    45   19   43 1    
    46   19   44 1    
    47   19   45 1    
@<TRIPOS>SUBSTRUCTURE
     1 UNK         1 GROUP             0       ****    0 ROOT    
@<TRIPOS>MOLECULE
ZINC23896651_32
45   47    1
SMALL
USER_CHARGES


@<TRIPOS>ATOM
      1 C1        -12.6577  -23.6377   37.4697 C.ar      1 UNK        -0.1150 
      2 C2        -13.8740  -23.7039   38.1762 C.ar      1 UNK        -0.1150 
      3 C3        -12.1216  -22.3864   37.1088 C.ar      1 UNK        -0.1150 
      4 C4        -17.7946  -15.5864   37.3181 C.ar      1 UNK        -0.1150 
      5 C5        -14.5537  -22.5194   38.5222 C.ar      1 UNK        -0.1150 
      6 C6        -12.8005  -21.2021   37.4572 C.ar      1 UNK        -0.1150 
      7 C7        -18.4984  -14.4116   37.6378 C.ar      1 UNK        -0.1150 
      8 C8        -15.8124  -14.6689   38.3738 C.ar      1 UNK        -0.1150 
      9 C9        -16.4464  -15.7295   37.7002 C.ar      1 UNK        -0.1150 
     10 C10       -14.0175  -21.2620   38.1692 C.ar      1 UNK        -0.0418 
     11 C11       -17.8741  -13.3463   38.3391 C.ar      1 UNK         0.0850 
     12 C12       -16.5049  -13.4911   38.7196 C.ar      1 UNK         0.0850 
     13 C13       -15.6638  -16.9620   37.3451 C.2       1 UNK         0.6150 
     14 C14       -17.1345  -18.4104   38.7740 C.3       1 UNK        -0.0500 
     15 C15       -15.5168  -19.4211   37.3055 C.3       1 UNK        -0.0500 
     16 C16       -16.3687  -18.9834   39.9788 C.3       1 UNK         0.1400 
     17 C17       -14.7492  -19.9765   38.5205 C.3       1 UNK         0.2118 
     18 C18       -19.8925  -12.0218   38.2046 C.3       1 UNK         0.1100 
     19 C19       -16.3596  -11.4939   40.0946 C.3       1 UNK         0.1100 
     20 N20       -16.1644  -18.1684   37.7010 N.am      1 UNK        -0.1400 
     21 O21       -14.6010  -16.8367   36.7384 O.2       1 UNK        -0.5000 
     22 O22       -15.6826  -20.1696   39.5868 O.3       1 UNK        -0.4000 
     23 O23       -18.5497  -12.1799   38.6396 O.3       1 UNK        -0.2850 
     24 O24       -15.7393  -12.5670   39.4040 O.3       1 UNK        -0.2850 
     25 H25       -12.1364  -24.5462   37.2044 H         1 UNK         0.1150 
     26 H26       -14.2870  -24.6628   38.4537 H         1 UNK         0.1150 
     27 H27       -11.1898  -22.3344   36.5645 H         1 UNK         0.1150 
     28 H28       -18.2918  -16.3762   36.7727 H         1 UNK         0.1150 
     29 H29       -15.4872  -22.5773   39.0631 H         1 UNK         0.1150 
     30 H30       -12.3859  -20.2445   37.1757 H         1 UNK         0.1150 
     31 H31       -19.5275  -14.3537   37.3205 H         1 UNK         0.1150 
     32 H32       -14.7697  -14.7612   38.6441 H         1 UNK         0.1150 
     33 H33       -17.8887  -19.1207   38.4331 H         1 UNK         0.0600 
     34 H34       -17.6753  -17.5207   39.0919 H         1 UNK         0.0600 
     35 H35       -14.8417  -19.2835   36.4587 H         1 UNK         0.0600 
     36 H36       -16.2691  -20.1379   36.9741 H         1 UNK         0.0600 
     37 H37       -15.6598  -18.2542   40.3747 H         1 UNK         0.0300 
     38 H38       -17.0601  -19.2263   40.7859 H         1 UNK         0.0300 
     39 H39       -13.9987  -19.2528   38.8454 H         1 UNK         0.0300 
     40 H40       -20.2538  -11.0395   38.5093 H         1 UNK         0.0300 
     41 H41       -20.5491  -12.7671   38.6551 H         1 UNK         0.0300 
     42 H42       -19.9698  -12.0767   37.1179 H         1 UNK         0.0300 
     43 H43       -16.7238  -10.7328   39.4040 H         1 UNK         0.0300 
     44 H44       -15.6237  -11.0157   40.7406 H         1 UNK         0.0300 
     45 H45       -17.1752  -11.8390   40.7315 H         1 UNK         0.0300 
@<TRIPOS>BOND
     1    1    2 ar   
     2    1    3 ar   
     3    1   25 1    
     4    2    5 ar   
     5    2   26 1    
     6    3    6 ar   
     7    3   27 1    
     8    4    7 ar   
     9    4    9 ar   
    10    4   28 1    
    11    5   10 ar   
    12    5   29 1    
    13    6   10 ar   
    14    6   30 1    
    15    7   11 ar   
    16    7   31 1    
    17    8    9 ar   
    18    8   12 ar   
    19    8   32 1    
    20    9   13 1    
    21   10   17 1    
    22   11   12 ar   
    23   11   23 1    
    24   12   24 1    
    25   13   20 am   BACKBONE|DICT|INTERRES
    26   13   21 2    
    27   14   16 1    
    28   14   20 1    
    29   14   33 1    
    30   14   34 1    
    31   15   17 1    
    32   15   20 1    
    33   15   35 1    
    34   15   36 1    
    35   16   22 1    
    36   16   37 1    
    37   16   38 1    
    38   17   22 1    
    39   17   39 1    
    40   18   23 1    
    41   18   40 1    
    42   18   41 1    
    43   18   42 1    
    44   19   24 1    
    45   19   43 1    
    46   19   44 1    
    47   19   45 1    
@<TRIPOS>SUBSTRUCTURE
     1 UNK         1 GROUP             0       ****    0 ROOT    
@<TRIPOS>MOLECULE
ZINC23896653_31
45   47    1
SMALL
USER_CHARGES


@<TRIPOS>ATOM
      1 C1        -10.2447  -20.8826   37.1706 C.ar      1 UNK        -0.1150 
      2 C2        -10.8263  -20.6980   38.4397 C.ar      1 UNK        -0.1150 
      3 C3        -10.5315  -19.9806   36.1278 C.ar      1 UNK        -0.1150 
      4 C4        -14.6818  -12.6684   37.4650 C.ar      1 UNK        -0.1150 
      5 C5        -11.6961  -19.6130   38.6649 C.ar      1 UNK        -0.1150 
      6 C6        -11.4017  -18.8958   36.3534 C.ar      1 UNK        -0.1150 
      7 C7        -15.5640  -11.5761   37.5441 C.ar      1 UNK        -0.1150 
      8 C8        -13.2356  -11.5977   39.0899 C.ar      1 UNK        -0.1150 
      9 C9        -13.5160  -12.6949   38.2545 C.ar      1 UNK        -0.1150 
     10 C10       -11.9931  -18.7104   37.6213 C.ar      1 UNK        -0.0418 
     11 C11       -15.3026  -10.4764   38.4038 C.ar      1 UNK         0.0850 
     12 C12       -14.1098  -10.4967   39.1910 C.ar      1 UNK         0.0850 
     13 C13       -12.5410  -13.8367   38.1735 C.2       1 UNK         0.6150 
     14 C14       -14.3240  -15.4112   38.9397 C.3       1 UNK        -0.0500 
     15 C15       -12.1078  -16.2478   38.1867 C.3       1 UNK        -0.0500 
     16 C16       -14.2919  -16.7440   39.7041 C.3       1 UNK         0.1400 
     17 C17       -12.9120  -17.5250   37.8671 C.3       1 UNK         0.2118 
     18 C18       -17.3227   -9.3709   37.6634 C.3       1 UNK         0.1100 
     19 C19       -14.4764   -8.3806   40.3406 C.3       1 UNK         0.1100 
     20 N20       -12.9985  -15.0938   38.3829 N.am      1 UNK        -0.1400 
     21 O21       -11.3612  -13.5927   37.9249 O.2       1 UNK        -0.5000 
     22 O22       -13.8905  -17.8223   38.8666 O.3       1 UNK        -0.4000 
     23 O23       -16.1648   -9.4005   38.4852 O.3       1 UNK        -0.2850 
     24 O24       -13.6832   -9.5265   40.0785 O.3       1 UNK        -0.2850 
     25 H25        -9.5777  -21.7149   36.9980 H         1 UNK         0.1150 
     26 H26       -10.6062  -21.3879   39.2413 H         1 UNK         0.1150 
     27 H27       -10.0829  -20.1201   35.1550 H         1 UNK         0.1150 
     28 H28       -14.8996  -13.4812   36.7870 H         1 UNK         0.1150 
     29 H29       -12.1399  -19.4741   39.6401 H         1 UNK         0.1150 
     30 H30       -11.6139  -18.2049   35.5505 H         1 UNK         0.1150 
     31 H31       -16.4425  -11.6096   36.9194 H         1 UNK         0.1150 
     32 H32       -12.3273  -11.5988   39.6760 H         1 UNK         0.1150 
     33 H33       -15.0553  -15.4667   38.1329 H         1 UNK         0.0600 
     34 H34       -14.6591  -14.6319   39.6262 H         1 UNK         0.0600 
     35 H35       -11.5006  -16.3899   39.0818 H         1 UNK         0.0600 
     36 H36       -11.4111  -16.0591   37.3672 H         1 UNK         0.0600 
     37 H37       -13.6008  -16.6744   40.5456 H         1 UNK         0.0300 
     38 H38       -15.2715  -16.9718   40.1248 H         1 UNK         0.0300 
     39 H39       -13.4669  -17.3497   36.9437 H         1 UNK         0.0300 
     40 H40       -17.8692   -8.4464   37.8493 H         1 UNK         0.0300 
     41 H41       -17.9950  -10.1995   37.8896 H         1 UNK         0.0300 
     42 H42       -17.0626   -9.3895   36.6042 H         1 UNK         0.0300 
     43 H43       -14.5933   -7.7618   39.4503 H         1 UNK         0.0300 
     44 H44       -13.9791   -7.7708   41.0945 H         1 UNK         0.0300 
     45 H45       -15.4547   -8.6517   40.7387 H         1 UNK         0.0300 
@<TRIPOS>BOND
     1    1    2 ar   
     2    1    3 ar   
     3    1   25 1    
     4    2    5 ar   
     5    2   26 1    
     6    3    6 ar   
     7    3   27 1    
     8    4    7 ar   
     9    4    9 ar   
    10    4   28 1    
    11    5   10 ar   
    12    5   29 1    
    13    6   10 ar   
    14    6   30 1    
    15    7   11 ar   
    16    7   31 1    
    17    8    9 ar   
    18    8   12 ar   
    19    8   32 1    
    20    9   13 1    
    21   10   17 1    
    22   11   12 ar   
    23   11   23 1    
    24   12   24 1    
    25   13   20 am   BACKBONE|DICT|INTERRES
    26   13   21 2    
    27   14   16 1    
    28   14   20 1    
    29   14   33 1    
    30   14   34 1    
    31   15   17 1    
    32   15   20 1    
    33   15   35 1    
    34   15   36 1    
    35   16   22 1    
    36   16   37 1    
    37   16   38 1    
    38   17   22 1    
    39   17   39 1    
    40   18   23 1    
    41   18   40 1    
    42   18   41 1    
    43   18   42 1    
    44   19   24 1    
    45   19   43 1    
    46   19   44 1    
    47   19   45 1    
@<TRIPOS>SUBSTRUCTURE
     1 UNK         1 GROUP             0       ****    0 ROOT    
@<TRIPOS>MOLECULE
ZINC23897703_22
40   42    1
SMALL
USER_CHARGES


@<TRIPOS>ATOM
      1 C1         -4.6344  -11.1485   35.0691 C.ar      1 UNK        -0.1150 
      2 C2         -4.1632  -11.6852   36.2826 C.ar      1 UNK        -0.1150 
      3 C3         -5.5803  -10.1056   35.0823 C.ar      1 UNK        -0.1150 
      4 C4         -4.6382  -11.1798   37.5088 C.ar      1 UNK        -0.1150 
      5 C5         -6.0553   -9.6005   36.3084 C.ar      1 UNK        -0.1150 
      6 C6         -7.1413   -4.5466   39.0407 C.ar      1 UNK        -0.1490 
      7 C7         -8.2886   -5.6194   37.4188 C.ar      1 UNK        -0.1630 
      8 C8         -7.8165   -4.3871   37.7896 C.ar      1 UNK        -0.1460 
      9 C9         -5.5908  -10.1382   37.5282 C.ar      1 UNK        -0.0418 
     10 C10        -7.1871   -5.8700   39.3860 C.ar      1 UNK        -0.1230 
     11 C11        -8.0497   -3.1840   36.9587 C.2       1 UNK         0.5850 
     12 C12        -6.7005   -6.5915   40.5858 C.2       1 UNK         0.6150 
     13 C13        -5.6890   -8.6431   41.5273 C.3       1 UNK        -0.0500 
     14 C14        -5.4102   -8.2308   39.1725 C.3       1 UNK        -0.0500 
     15 C15        -6.3538   -9.9893   41.1933 C.3       1 UNK         0.1400 
     16 C16        -6.0961   -9.5699   38.8444 C.3       1 UNK         0.2118 
     17 C17        -7.5087   -1.8673   37.4958 C.3       1 UNK        -0.1800 
     18 N18        -7.9220   -6.5110   38.4067 N.pl3     1 UNK        -0.2390 
     19 N19        -5.9734   -7.7219   40.4261 N.am      1 UNK        -0.1400 
     20 O20        -8.6470   -3.2209   35.8841 O.2       1 UNK        -0.4700 
     21 O21        -6.9675   -6.1329   41.6941 O.2       1 UNK        -0.5000 
     22 O22        -5.8735  -10.4654   39.9364 O.3       1 UNK        -0.4000 
     23 H23        -4.2688  -11.5359   34.1289 H         1 UNK         0.1150 
     24 H24        -3.4364  -12.4846   36.2742 H         1 UNK         0.1150 
     25 H25        -5.9398   -9.6920   34.1511 H         1 UNK         0.1150 
     26 H26        -4.2702  -11.5951   38.4361 H         1 UNK         0.1150 
     27 H27        -6.7755   -8.7955   36.3079 H         1 UNK         0.1150 
     28 H28        -6.6673   -3.7753   39.6310 H         1 UNK         0.1180 
     29 H29        -8.8639   -5.9224   36.5537 H         1 UNK         0.1550 
     30 H30        -6.0584   -8.2808   42.4884 H         1 UNK         0.0600 
     31 H31        -4.6111   -8.7649   41.6401 H         1 UNK         0.0600 
     32 H32        -4.3371   -8.3854   39.2953 H         1 UNK         0.0600 
     33 H33        -5.5026   -7.5281   38.3448 H         1 UNK         0.0600 
     34 H34        -6.1228  -10.7266   41.9625 H         1 UNK         0.0300 
     35 H35        -7.4402   -9.8902   41.1631 H         1 UNK         0.0300 
     36 H36        -7.1724   -9.4206   38.7409 H         1 UNK         0.0300 
     37 H37        -7.7327   -1.0563   36.8038 H         1 UNK         0.0600 
     38 H38        -6.4288   -1.9289   37.6238 H         1 UNK         0.0600 
     39 H39        -7.9650   -1.6401   38.4584 H         1 UNK         0.0600 
     40 H40        -8.1806   -7.4877   38.4340 H         1 UNK         0.3170 
@<TRIPOS>BOND
     1    1    2 ar   
     2    1    3 ar   
     3    1   23 1    
     4    2    4 ar   
     5    2   24 1    
     6    3    5 ar   
     7    3   25 1    
     8    4    9 ar   
     9    4   26 1    
    10    5    9 ar   
    11    5   27 1    
    12    6    8 ar   
    13    6   10 ar   
    14    6   28 1    
    15    7    8 ar   
    16    7   18 ar   
    17    7   29 1    
    18    8   11 1    
    19    9   16 1    
    20   10   12 1    
    21   10   18 ar   
    22   11   17 1    
    23   11   20 2    
    24   12   19 am   BACKBONE|DICT|INTERRES
    25   12   21 2    
    26   13   15 1    
    27   13   19 1    
    28   13   30 1    
    29   13   31 1    
    30   14   16 1    
    31   14   19 1    
    32   14   32 1    
    33   14   33 1    
    34   15   22 1    
    35   15   34 1    
    36   15   35 1    
    37   16   22 1    
    38   16   36 1    
    39   17   37 1    
    40   17   38 1    
    41   17   39 1    
    42   18   40 1    
@<TRIPOS>SUBSTRUCTURE
     1 UNK         1 GROUP             0       ****    0 ROOT    
@<TRIPOS>MOLECULE
ZINC24467200_9
44   46    1
SMALL
USER_CHARGES


@<TRIPOS>ATOM
      1 C1         -6.3634   -3.8401   39.4520 C.ar      1 UNK        -0.1150 
      2 C2         -4.1326   -7.4265   36.9522 C.ar      1 UNK        -0.1150 
      3 C3         -4.5345   -6.9260   38.2048 C.ar      1 UNK        -0.1150 
      4 C4         -6.8941   -3.0763   38.3989 C.ar      1 UNK        -0.1150 
      5 C5         -7.5279   -5.7905   38.5930 C.ar      1 UNK        -0.1150 
      6 C6         -4.9197   -9.6349   37.5867 C.ar      1 UNK        -0.1150 
      7 C7         -6.6562   -5.2132   39.5423 C.ar      1 UNK        -0.1150 
      8 C8         -5.3265   -9.1437   38.8451 C.ar      1 UNK        -0.1150 
      9 C9         -4.3340   -8.7833   36.6292 C.ar      1 UNK         0.1500 
     10 C10        -5.1690   -7.7661   39.1553 C.ar      1 UNK        -0.0383 
     11 C11        -7.7266   -3.6521   37.4183 C.ar      1 UNK         0.0850 
     12 C12        -8.0616   -5.0374   37.5149 C.ar      1 UNK         0.0850 
     13 C13        -6.0984   -6.0265   40.6825 C.2       1 UNK         0.6150 
     14 C14        -5.8933  -10.1317   39.8558 C.3       1 UNK        -0.0050 
     15 C15        -6.4199   -9.4755   41.1392 C.3       1 UNK        -0.1200 
     16 C16        -5.5886   -8.2483   41.5364 C.3       1 UNK        -0.0500 
     17 C17        -8.8021   -3.2339   35.2772 C.3       1 UNK         0.1100 
     18 C18        -9.1259   -7.0134   36.6136 C.3       1 UNK         0.1100 
     19 C19        -3.9058   -9.3450   35.2805 C.3       1 UNK         0.4500 
     20 N20        -5.6012   -7.2733   40.4363 N.am      1 UNK        -0.0317 
     21 O21        -6.0927   -5.5207   41.8059 O.2       1 UNK        -0.5000 
     22 O22        -8.1462   -2.7654   36.4447 O.3       1 UNK        -0.2850 
     23 O23        -8.9002   -5.6110   36.5797 O.3       1 UNK        -0.2850 
     24 F24        -3.6106   -8.3755   34.4136 F         1 UNK        -0.2000 
     25 F25        -2.8310  -10.1149   35.4457 F         1 UNK        -0.2000 
     26 F26        -4.8891  -10.0853   34.7678 F         1 UNK        -0.2000 
     27 H27        -5.7292   -3.3704   40.1912 H         1 UNK         0.1150 
     28 H28        -3.6640   -6.7648   36.2385 H         1 UNK         0.1150 
     29 H29        -4.3486   -5.8830   38.4180 H         1 UNK         0.1150 
     30 H30        -6.6565   -2.0245   38.3348 H         1 UNK         0.1150 
     31 H31        -7.7694   -6.8347   38.7127 H         1 UNK         0.1150 
     32 H32        -5.0420  -10.6812   37.3460 H         1 UNK         0.1150 
     33 H33        -6.6779  -10.7306   39.3911 H         1 UNK         0.0600 
     34 H34        -5.0894  -10.8221   40.1156 H         1 UNK         0.0600 
     35 H35        -7.4485   -9.1507   40.9748 H         1 UNK         0.0600 
     36 H36        -6.4584  -10.2043   41.9496 H         1 UNK         0.0600 
     37 H37        -5.9752   -7.8492   42.4761 H         1 UNK         0.0600 
     38 H38        -4.5555   -8.5370   41.7343 H         1 UNK         0.0600 
     39 H39        -8.9068   -2.4085   34.5732 H         1 UNK         0.0300 
     40 H40        -9.8065   -3.5943   35.5022 H         1 UNK         0.0300 
     41 H41        -8.2282   -4.0152   34.7772 H         1 UNK         0.0300 
     42 H42        -9.7475   -7.2961   35.7641 H         1 UNK         0.0300 
     43 H43        -9.6555   -7.3105   37.5196 H         1 UNK         0.0300 
     44 H44        -8.1919   -7.5724   36.5370 H         1 UNK         0.0300 
@<TRIPOS>BOND
     1    1    4 ar   
     2    1    7 ar   
     3    1   27 1    
     4    2    3 ar   
     5    2    9 ar   
     6    2   28 1    
     7    3   10 ar   
     8    3   29 1    
     9    4   11 ar   
    10    4   30 1    
    11    5    7 ar   
    12    5   12 ar   
    13    5   31 1    
    14    6    8 ar   
    15    6    9 ar   
    16    6   32 1    
    17    7   13 1    
    18    8   10 ar   
    19    8   14 1    
    20    9   19 1    
    21   10   20 1    
    22   11   12 ar   
    23   11   22 1    
    24   12   23 1    
    25   13   20 am   BACKBONE|DICT|INTERRES
    26   13   21 2    
    27   14   15 1    
    28   14   33 1    
    29   14   34 1    
    30   15   16 1    
    31   15   35 1    
    32   15   36 1    
    33   16   20 1    
    34   16   37 1    
    35   16   38 1    
    36   17   22 1    
    37   17   39 1    
    38   17   40 1    
    39   17   41 1    
    40   18   23 1    
    41   18   42 1    
    42   18   43 1    
    43   18   44 1    
    44   19   24 1    
    45   19   25 1    
    46   19   26 1    
@<TRIPOS>SUBSTRUCTURE
     1 UNK         1 GROUP             0       ****    0 ROOT    
@<TRIPOS>MOLECULE
ZINC27448669_132
43   45    1
SMALL
USER_CHARGES


@<TRIPOS>ATOM
      1 C1         -4.7241  -11.7581   35.0898 C.ar      1 UNK        -0.1150 
      2 C2         -5.5332  -12.5573   35.9206 C.ar      1 UNK        -0.1150 
      3 C3         -4.2775  -10.5011   35.5411 C.ar      1 UNK        -0.1150 
      4 C4         -5.8969  -12.0992   37.2027 C.ar      1 UNK        -0.1150 
      5 C5         -4.6405  -10.0444   36.8237 C.ar      1 UNK        -0.1150 
      6 C6         -8.1923   -4.4531   39.8705 C.ar      1 UNK        -0.1150 
      7 C7         -8.4444   -4.8959   37.1054 C.ar      1 UNK        -0.1150 
      8 C8         -6.8290  -10.3873   40.9083 C.2       1 UNK        -0.1480 
      9 C9         -5.4520  -10.8399   37.6621 C.ar      1 UNK         0.0000 
     10 C10        -7.6270   -5.6110   39.2915 C.ar      1 UNK         0.0850 
     11 C11        -7.7436   -5.8349   37.9030 C.ar      1 UNK         0.0850 
     12 C12        -9.0219   -3.7363   37.6821 C.ar      1 UNK         0.0850 
     13 C13        -8.8851   -3.5267   39.0712 C.ar      1 UNK         0.1800 
     14 C14        -6.1360   -9.2096   40.8040 C.2       1 UNK         0.1450 
     15 C15        -5.8278  -10.3534   38.9868 C.2       1 UNK         0.5540 
     16 C16        -6.8901   -6.8619   41.3373 C.2       1 UNK         0.5000 
     17 C17        -7.3065   -7.2844   36.0282 C.3       1 UNK         0.1100 
     18 C18        -9.8860   -2.9730   35.5662 C.3       1 UNK         0.1100 
     19 C19        -6.0341   -8.0592   41.7720 C.3       1 UNK        -0.0050 
     20 N20        -5.4892   -9.2032   39.5728 N.2       1 UNK        -0.5900 
     21 N21        -6.9021   -6.5865   40.0225 N.am      1 UNK        -0.3850 
     22 O22        -7.4959   -6.2135   42.1888 O.2       1 UNK        -0.5000 
     23 O23        -6.6454  -11.1177   39.7640 O.3       1 UNK        -0.2570 
     24 O24        -7.1544   -6.9821   37.4072 O.3       1 UNK        -0.2850 
     25 O25        -9.7149   -2.7838   36.9625 O.3       1 UNK        -0.2850 
     26 Cl26       -9.5645   -2.1213   39.8113 Cl        1 UNK        -0.1800 
     27 H27        -4.4442  -12.1101   34.1070 H         1 UNK         0.1150 
     28 H28        -5.8746  -13.5228   35.5752 H         1 UNK         0.1150 
     29 H29        -3.6549   -9.8879   34.9054 H         1 UNK         0.1150 
     30 H30        -6.5181  -12.7180   37.8343 H         1 UNK         0.1150 
     31 H31        -4.2973   -9.0790   37.1689 H         1 UNK         0.1150 
     32 H32        -8.1021   -4.2492   40.9261 H         1 UNK         0.1150 
     33 H33        -8.5365   -5.0637   36.0462 H         1 UNK         0.1150 
     34 H34        -7.4647  -10.8205   41.6678 H         1 UNK         0.1810 
     35 H35        -6.8207   -8.2362   35.8133 H         1 UNK         0.0300 
     36 H36        -6.8375   -6.5257   35.4003 H         1 UNK         0.0300 
     37 H37        -8.3577   -7.3845   35.7545 H         1 UNK         0.0300 
     38 H38       -10.4595   -2.1397   35.1601 H         1 UNK         0.0300 
     39 H39       -10.4396   -3.8882   35.3521 H         1 UNK         0.0300 
     40 H40        -8.9276   -2.9966   35.0459 H         1 UNK         0.0300 
     41 H41        -6.3485   -8.3706   42.7685 H         1 UNK         0.0600 
     42 H42        -5.0002   -7.7268   41.8646 H         1 UNK         0.0600 
     43 H43        -6.4036   -7.2626   39.4504 H         1 UNK         0.3000 
@<TRIPOS>BOND
     1    1    2 ar   
     2    1    3 ar   
     3    1   27 1    
     4    2    4 ar   
     5    2   28 1    
     6    3    5 ar   
     7    3   29 1    
     8    4    9 ar   
     9    4   30 1    
    10    5    9 ar   
    11    5   31 1    
    12    6   10 ar   
    13    6   13 ar   
    14    6   32 1    
    15    7   11 ar   
    16    7   12 ar   
    17    7   33 1    
    18    8   14 2    
    19    8   23 1    
    20    8   34 1    
    21    9   15 1    
    22   10   11 ar   
    23   10   21 1    
    24   11   24 1    
    25   12   13 ar   
    26   12   25 1    
    27   13   26 1    
    28   14   19 1    
    29   14   20 1    
    30   15   20 2    
    31   15   23 1    
    32   16   19 1    
    33   16   21 am   BACKBONE|DICT|INTERRES
    34   16   22 2    
    35   17   24 1    
    36   17   35 1    
    37   17   36 1    
    38   17   37 1    
    39   18   25 1    
    40   18   38 1    
    41   18   39 1    
    42   18   40 1    
    43   19   41 1    
    44   19   42 1    
    45   21   43 1    
@<TRIPOS>SUBSTRUCTURE
     1 UNK         1 GROUP             0       ****    0 ROOT    
@<TRIPOS>MOLECULE
ZINC27476074_31
51   52    1
SMALL
USER_CHARGES


@<TRIPOS>ATOM
      1 C1         -8.1554   -6.6140   38.8824 C.ar      1 UNK        -0.1150 
      2 C2         -6.1821   -5.2377   38.5247 C.ar      1 UNK        -0.1150 
      3 C3         -6.9231   -6.1145   39.3371 C.ar      1 UNK        -0.1150 
      4 C4         -8.6507   -6.2454   37.6090 C.ar      1 UNK         0.0850 
      5 C5         -6.6470   -4.8597   37.2413 C.ar      1 UNK         0.0850 
      6 C6         -7.9048   -5.3593   36.7951 C.ar      1 UNK         0.0850 
      7 C7         -4.8923   -9.2852   34.5832 C.2       1 UNK         0.5000 
      8 C8         -4.3539   -7.8114   39.6953 C.2       1 UNK         0.5000 
      9 C9         -3.9633   -7.6848   36.2836 C.3       1 UNK        -0.0500 
     10 C10        -5.8594   -9.1247   36.8569 C.3       1 UNK        -0.0500 
     11 C11        -3.2154   -8.1957   37.5358 C.3       1 UNK        -0.0500 
     12 C12        -5.0756   -9.6304   38.0833 C.3       1 UNK        -0.0500 
     13 C13        -3.8948   -8.7929   33.5367 C.3       1 UNK        -0.1800 
     14 C14       -10.6068   -7.6269   37.8665 C.3       1 UNK         0.1100 
     15 C15        -4.6470   -3.5641   36.8456 C.3       1 UNK         0.1100 
     16 C16        -8.2822   -3.7623   35.0360 C.3       1 UNK         0.1100 
     17 C17        -6.3568   -6.5689   40.6727 C.3       1 UNK        -0.0050 
     18 C18        -5.6226   -7.9201   40.5604 C.3       1 UNK        -0.1200 
     19 N19        -4.9045   -8.7168   35.8127 N.am      1 UNK        -0.1400 
     20 N20        -4.2089   -8.5445   38.5624 N.am      1 UNK        -0.1400 
     21 O21        -5.6575  -10.1940   34.2657 O.2       1 UNK        -0.5000 
     22 O22        -3.5110   -6.9824   40.0397 O.2       1 UNK        -0.5000 
     23 O23        -9.8459   -6.7089   37.0972 O.3       1 UNK        -0.2850 
     24 O24        -5.8999   -4.0614   36.3968 O.3       1 UNK        -0.2850 
     25 O25        -8.4590   -5.0677   35.5649 O.3       1 UNK        -0.2850 
     26 H26        -8.6998   -7.2916   39.5211 H         1 UNK         0.1150 
     27 H27        -5.2296   -4.8959   38.9005 H         1 UNK         0.1150 
     28 H28        -4.5285   -6.7836   36.5231 H         1 UNK         0.0600 
     29 H29        -3.2339   -7.3827   35.5342 H         1 UNK         0.0600 
     30 H30        -6.5439   -9.9036   36.5170 H         1 UNK         0.0600 
     31 H31        -6.4861   -8.2718   37.1195 H         1 UNK         0.0600 
     32 H32        -2.6129   -9.0722   37.2932 H         1 UNK         0.0600 
     33 H33        -2.5088   -7.4352   37.8726 H         1 UNK         0.0600 
     34 H34        -5.7457  -10.0400   38.8342 H         1 UNK         0.0600 
     35 H35        -4.4520  -10.4772   37.7913 H         1 UNK         0.0600 
     36 H36        -2.8712   -8.9741   33.8637 H         1 UNK         0.0600 
     37 H37        -4.0316   -7.7287   33.3450 H         1 UNK         0.0600 
     38 H38        -4.0438   -9.3232   32.5957 H         1 UNK         0.0600 
     39 H39       -11.5031   -7.9023   37.3110 H         1 UNK         0.0300 
     40 H40       -10.9275   -7.1858   38.8111 H         1 UNK         0.0300 
     41 H41       -10.0476   -8.5425   38.0632 H         1 UNK         0.0300 
     42 H42        -4.2060   -2.9464   36.0634 H         1 UNK         0.0300 
     43 H43        -3.9466   -4.3730   37.0578 H         1 UNK         0.0300 
     44 H44        -4.7599   -2.9394   37.7327 H         1 UNK         0.0300 
     45 H45        -9.1133   -3.5341   34.3690 H         1 UNK         0.0300 
     46 H46        -7.3676   -3.6978   34.4466 H         1 UNK         0.0300 
     47 H47        -8.2674   -2.9986   35.8152 H         1 UNK         0.0300 
     48 H48        -7.1712   -6.6519   41.3931 H         1 UNK         0.0600 
     49 H49        -5.6877   -5.8026   41.0688 H         1 UNK         0.0600 
     50 H50        -5.3065   -8.2401   41.5531 H         1 UNK         0.0600 
     51 H51        -6.3337   -8.6638   40.2178 H         1 UNK         0.0600 
@<TRIPOS>BOND
     1    1    3 ar   
     2    1    4 ar   
     3    1   26 1    
     4    2    3 ar   
     5    2    5 ar   
     6    2   27 1    
     7    3   17 1    
     8    4    6 ar   
     9    4   23 1    
    10    5    6 ar   
    11    5   24 1    
    12    6   25 1    
    13    7   13 1    
    14    7   19 am   BACKBONE|DICT|INTERRES
    15    7   21 2    
    16    8   18 1    
    17    8   20 am   BACKBONE|DICT|INTERRES
    18    8   22 2    
    19    9   11 1    
    20    9   19 1    
    21    9   28 1    
    22    9   29 1    
    23   10   12 1    
    24   10   19 1    
    25   10   30 1    
    26   10   31 1    
    27   11   20 1    
    28   11   32 1    
    29   11   33 1    
    30   12   20 1    
    31   12   34 1    
    32   12   35 1    
    33   13   36 1    
    34   13   37 1    
    35   13   38 1    
    36   14   23 1    
    37   14   39 1    
    38   14   40 1    
    39   14   41 1    
    40   15   24 1    
    41   15   42 1    
    42   15   43 1    
    43   15   44 1    
    44   16   25 1    
    45   16   45 1    
    46   16   46 1    
    47   16   47 1    
    48   17   18 1    
    49   17   48 1    
    50   17   49 1    
    51   18   50 1    
    52   18   51 1    
@<TRIPOS>SUBSTRUCTURE
     1 UNK         1 GROUP             0       ****    0 ROOT    
@<TRIPOS>MOLECULE
ZINC27901740_28
46   48    1
SMALL
USER_CHARGES


@<TRIPOS>ATOM
      1 C1         -4.8002  -10.8702   35.0155 C.ar      1 UNK        -0.1150 
      2 C2         -4.2352  -11.4245   36.1803 C.ar      1 UNK        -0.1150 
      3 C3         -5.7812   -9.8653   35.1195 C.ar      1 UNK        -0.1150 
      4 C4         -4.6528  -10.9764   37.4489 C.ar      1 UNK        -0.1150 
      5 C5         -6.1994   -9.4179   36.3880 C.ar      1 UNK        -0.1150 
      6 C6         -8.1192   -4.6248   37.8373 C.ar      1 UNK        -0.1460 
      7 C7         -5.6413   -9.9747   37.5591 C.ar      1 UNK        -0.0418 
      8 C8         -7.3135   -4.6763   39.0343 C.ar      1 UNK        -0.1460 
      9 C9         -7.4178   -5.9501   39.5335 C.ar      1 UNK        -0.1230 
     10 C10        -8.7120   -5.8602   37.6783 C.ar      1 UNK        -0.1630 
     11 C11        -8.3723   -3.5150   36.8640 C.2       1 UNK         0.5850 
     12 C12        -6.8477   -6.6225   40.7248 C.2       1 UNK         0.6150 
     13 C13        -5.5805   -8.5623   41.5935 C.3       1 UNK        -0.0500 
     14 C14        -5.4631   -8.0964   39.2353 C.3       1 UNK        -0.0500 
     15 C15        -6.1752   -9.9445   41.2706 C.3       1 UNK         0.1400 
     16 C16        -6.0890   -9.4666   38.9195 C.3       1 UNK         0.2118 
     17 C17        -6.4883   -3.5700   39.6514 C.3       1 UNK        -0.0650 
     18 C18        -9.6565   -6.4230   36.6608 C.3       1 UNK        -0.0250 
     19 C19        -7.6761   -2.1819   37.0961 C.3       1 UNK        -0.1800 
     20 N20        -8.2896   -6.6417   38.7281 N.pl3     1 UNK        -0.2390 
     21 N21        -5.9886   -7.6483   40.5272 N.am      1 UNK        -0.1400 
     22 O22        -9.1087   -3.6325   35.8848 O.2       1 UNK        -0.4700 
     23 O23        -7.1755   -6.2368   41.8447 O.2       1 UNK        -0.5000 
     24 O24        -5.7445  -10.3671   39.9760 O.3       1 UNK        -0.4000 
     25 H25        -4.4787  -11.2142   34.0429 H         1 UNK         0.1150 
     26 H26        -3.4801  -12.1934   36.1023 H         1 UNK         0.1150 
     27 H27        -6.2113   -9.4363   34.2259 H         1 UNK         0.1150 
     28 H28        -4.2127  -11.4042   38.3384 H         1 UNK         0.1150 
     29 H29        -6.9472   -8.6410   36.4593 H         1 UNK         0.1150 
     30 H30        -5.9146   -8.2352   42.5797 H         1 UNK         0.0600 
     31 H31        -4.4922   -8.6151   41.6405 H         1 UNK         0.0600 
     32 H32        -4.3774   -8.1861   39.2933 H         1 UNK         0.0600 
     33 H33        -5.6503   -7.3875   38.4283 H         1 UNK         0.0600 
     34 H34        -5.8506  -10.6782   42.0086 H         1 UNK         0.0300 
     35 H35        -7.2656   -9.9162   41.3079 H         1 UNK         0.0300 
     36 H36        -7.1767   -9.3802   38.8874 H         1 UNK         0.0300 
     37 H37        -6.0063   -3.9000   40.5718 H         1 UNK         0.0600 
     38 H38        -5.7048   -3.2450   38.9676 H         1 UNK         0.0600 
     39 H39        -7.1180   -2.7173   39.9039 H         1 UNK         0.0600 
     40 H40        -9.2263   -6.3669   35.6604 H         1 UNK         0.0600 
     41 H41        -9.8956   -7.4673   36.8618 H         1 UNK         0.0600 
     42 H42       -10.5922   -5.8629   36.6519 H         1 UNK         0.0600 
     43 H43        -7.9379   -1.4829   36.3024 H         1 UNK         0.0600 
     44 H44        -6.5954   -2.3129   37.0929 H         1 UNK         0.0600 
     45 H45        -7.9883   -1.7520   38.0463 H         1 UNK         0.0600 
     46 H46        -8.5948   -7.5872   38.9127 H         1 UNK         0.3170 
@<TRIPOS>BOND
     1    1    2 ar   
     2    1    3 ar   
     3    1   25 1    
     4    2    4 ar   
     5    2   26 1    
     6    3    5 ar   
     7    3   27 1    
     8    4    7 ar   
     9    4   28 1    
    10    5    7 ar   
    11    5   29 1    
    12    6    8 ar   
    13    6   10 ar   
    14    6   11 1    
    15    7   16 1    
    16    8    9 ar   
    17    8   17 1    
    18    9   12 1    
    19    9   20 ar   
    20   10   18 1    
    21   10   20 ar   
    22   11   19 1    
    23   11   22 2    
    24   12   21 am   BACKBONE|DICT|INTERRES
    25   12   23 2    
    26   13   15 1    
    27   13   21 1    
    28   13   30 1    
    29   13   31 1    
    30   14   16 1    
    31   14   21 1    
    32   14   32 1    
    33   14   33 1    
    34   15   24 1    
    35   15   34 1    
    36   15   35 1    
    37   16   24 1    
    38   16   36 1    
    39   17   37 1    
    40   17   38 1    
    41   17   39 1    
    42   18   40 1    
    43   18   41 1    
    44   18   42 1    
    45   19   43 1    
    46   19   44 1    
    47   19   45 1    
    48   20   46 1    
@<TRIPOS>SUBSTRUCTURE
     1 UNK         1 GROUP             0       ****    0 ROOT    
@<TRIPOS>MOLECULE
ZINC29112421_10
45   47    1
SMALL
USER_CHARGES


@<TRIPOS>ATOM
      1 C1        -10.5084  -17.5738   37.6276 C.ar      1 UNK        -0.1150 
      2 C2        -11.7693  -15.7838   36.5541 C.ar      1 UNK        -0.1150 
      3 C3         -9.9506  -17.9262   36.3823 C.ar      1 UNK        -0.1150 
      4 C4        -11.2100  -16.1370   35.3099 C.ar      1 UNK        -0.1150 
      5 C5        -13.9554  -12.9790   38.8794 C.ar      1 UNK        -0.1150 
      6 C6        -12.7269  -11.1336   39.8942 C.ar      1 UNK        -0.1150 
      7 C7        -13.8248  -10.8302   37.7462 C.ar      1 UNK        -0.1150 
      8 C8        -13.1540  -12.4755   39.9265 C.ar      1 UNK        -0.1150 
      9 C9        -11.4253  -16.5037   37.7191 C.ar      1 UNK        -0.0418 
     10 C10       -14.2914  -12.1597   37.7762 C.ar      1 UNK         0.0850 
     11 C11       -13.0468  -10.3011   38.8060 C.ar      1 UNK         0.0850 
     12 C12       -10.3023  -17.2091   35.2238 C.ar      1 UNK         0.2200 
     13 C13       -12.7877  -13.3453   41.0922 C.2       1 UNK         0.6150 
     14 C14       -11.8404  -15.5002   41.8535 C.3       1 UNK        -0.0500 
     15 C15       -11.3895  -14.8065   39.5911 C.3       1 UNK        -0.0500 
     16 C16       -12.4543  -16.8012   41.3087 C.3       1 UNK         0.1400 
     17 C17       -12.0273  -16.1028   39.0567 C.3       1 UNK         0.2118 
     18 C18       -15.6489  -13.8683   36.7707 C.3       1 UNK         0.1100 
     19 C19       -12.8785   -8.1425   37.7701 C.3       1 UNK         0.1100 
     20 N20       -12.0478  -14.4531   40.8525 N.am      1 UNK        -0.1400 
     21 O21       -13.1848  -13.0360   42.2137 O.2       1 UNK        -0.5000 
     22 O22       -11.8664  -17.1200   40.0475 O.3       1 UNK        -0.4000 
     23 O23       -15.0540  -12.5796   36.7081 O.3       1 UNK        -0.2850 
     24 O24       -12.5691   -9.0098   38.8510 O.3       1 UNK        -0.2850 
     25 F25        -9.7672  -17.5486   34.0283 F         1 UNK        -0.2200 
     26 H26       -10.2320  -18.1301   38.5117 H         1 UNK         0.1150 
     27 H27       -12.4602  -14.9551   36.6104 H         1 UNK         0.1150 
     28 H28        -9.2528  -18.7473   36.3123 H         1 UNK         0.1150 
     29 H29       -11.4734  -15.5876   34.4183 H         1 UNK         0.1150 
     30 H30       -14.3040  -13.9976   38.9451 H         1 UNK         0.1150 
     31 H31       -12.1380  -10.7382   40.7103 H         1 UNK         0.1150 
     32 H32       -14.0932  -10.2267   36.8929 H         1 UNK         0.1150 
     33 H33       -12.2908  -15.2567   42.8174 H         1 UNK         0.0600 
     34 H34       -10.7732  -15.6288   42.0375 H         1 UNK         0.0600 
     35 H35       -10.3252  -14.9637   39.7719 H         1 UNK         0.0600 
     36 H36       -11.4388  -14.0140   38.8448 H         1 UNK         0.0600 
     37 H37       -12.2734  -17.6237   42.0010 H         1 UNK         0.0300 
     38 H38       -13.5362  -16.7060   41.2025 H         1 UNK         0.0300 
     39 H39       -13.0959  -15.9561   38.8936 H         1 UNK         0.0300 
     40 H40       -16.2603  -14.0259   35.8823 H         1 UNK         0.0300 
     41 H41       -16.3018  -13.9639   37.6397 H         1 UNK         0.0300 
     42 H42       -14.8964  -14.6571   36.7954 H         1 UNK         0.0300 
     43 H43       -12.4691   -8.5157   36.8304 H         1 UNK         0.0300 
     44 H44       -12.4356   -7.1643   37.9567 H         1 UNK         0.0300 
     45 H45       -13.9552   -8.0020   37.6660 H         1 UNK         0.0300 
@<TRIPOS>BOND
     1    1    3 ar   
     2    1    9 ar   
     3    1   26 1    
     4    2    4 ar   
     5    2    9 ar   
     6    2   27 1    
     7    3   12 ar   
     8    3   28 1    
     9    4   12 ar   
    10    4   29 1    
    11    5    8 ar   
    12    5   10 ar   
    13    5   30 1    
    14    6    8 ar   
    15    6   11 ar   
    16    6   31 1    
    17    7   10 ar   
    18    7   11 ar   
    19    7   32 1    
    20    8   13 1    
    21    9   17 1    
    22   10   23 1    
    23   11   24 1    
    24   12   25 1    
    25   13   20 am   BACKBONE|DICT|INTERRES
    26   13   21 2    
    27   14   16 1    
    28   14   20 1    
    29   14   33 1    
    30   14   34 1    
    31   15   17 1    
    32   15   20 1    
    33   15   35 1    
    34   15   36 1    
    35   16   22 1    
    36   16   37 1    
    37   16   38 1    
    38   17   22 1    
    39   17   39 1    
    40   18   23 1    
    41   18   40 1    
    42   18   41 1    
    43   18   42 1    
    44   19   24 1    
    45   19   43 1    
    46   19   44 1    
    47   19   45 1    
@<TRIPOS>SUBSTRUCTURE
     1 UNK         1 GROUP             0       ****    0 ROOT    
@<TRIPOS>MOLECULE
ZINC29112447_29
45   47    1
SMALL
USER_CHARGES


@<TRIPOS>ATOM
      1 C1        -14.7217  -12.6962   37.4724 C.ar      1 UNK        -0.1150 
      2 C2        -11.7172  -19.6414   38.6556 C.ar      1 UNK        -0.1150 
      3 C3        -11.4339  -18.9227   36.3428 C.ar      1 UNK        -0.1150 
      4 C4        -15.6059  -11.6060   37.5571 C.ar      1 UNK        -0.1150 
      5 C5        -10.8467  -20.7252   38.4253 C.ar      1 UNK        -0.1150 
      6 C6        -10.5635  -20.0070   36.1137 C.ar      1 UNK        -0.1150 
      7 C7        -13.2781  -11.6323   39.1041 C.ar      1 UNK        -0.1150 
      8 C8        -13.5568  -12.7257   38.2632 C.ar      1 UNK        -0.1150 
      9 C9        -12.0201  -18.7384   37.6137 C.ar      1 UNK        -0.0418 
     10 C10       -15.3467  -10.5109   38.4232 C.ar      1 UNK         0.0850 
     11 C11       -14.1529  -10.5321   39.2089 C.ar      1 UNK         0.0850 
     12 C12       -10.2709  -20.9084   37.1542 C.ar      1 UNK         0.2200 
     13 C13       -12.5803  -13.8658   38.1780 C.2       1 UNK         0.6150 
     14 C14       -14.3631  -15.4480   38.9294 C.3       1 UNK        -0.0500 
     15 C15       -12.1415  -16.2755   38.1814 C.3       1 UNK        -0.0500 
     16 C16       -14.3278  -16.7785   39.6977 C.3       1 UNK         0.1400 
     17 C17       -12.9416  -17.5557   37.8642 C.3       1 UNK         0.2118 
     18 C18       -17.3737   -9.4087   37.6959 C.3       1 UNK         0.1100 
     19 C19       -14.4875   -8.3879   40.3161 C.3       1 UNK         0.1100 
     20 N20       -13.0361  -15.1247   38.3799 N.am      1 UNK        -0.1400 
     21 O21       -11.4003  -13.6198   37.9329 O.2       1 UNK        -0.5000 
     22 O22       -13.9120  -17.8584   38.8689 O.3       1 UNK        -0.4000 
     23 O23       -16.2141   -9.4403   38.5153 O.3       1 UNK        -0.2850 
     24 O24       -13.7272   -9.5656   40.1009 O.3       1 UNK        -0.2850 
     25 F25        -9.4353  -21.9495   36.9328 F         1 UNK        -0.2200 
     26 H26       -14.9382  -13.5055   36.7898 H         1 UNK         0.1150 
     27 H27       -12.1562  -19.5051   39.6333 H         1 UNK         0.1150 
     28 H28       -11.6501  -18.2331   35.5401 H         1 UNK         0.1150 
     29 H29       -16.4844  -11.6375   36.9325 H         1 UNK         0.1150 
     30 H30       -10.6184  -21.4185   39.2210 H         1 UNK         0.1150 
     31 H31       -10.1165  -20.1512   35.1414 H         1 UNK         0.1150 
     32 H32       -12.3701  -11.6348   39.6907 H         1 UNK         0.1150 
     33 H33       -15.0895  -15.5087   38.1187 H         1 UNK         0.0600 
     34 H34       -14.7066  -14.6694   39.6127 H         1 UNK         0.0600 
     35 H35       -11.5314  -16.4146   39.0751 H         1 UNK         0.0600 
     36 H36       -11.4483  -16.0830   37.3597 H         1 UNK         0.0600 
     37 H37       -13.6434  -16.7008   40.5439 H         1 UNK         0.0300 
     38 H38       -15.3088  -17.0114   40.1124 H         1 UNK         0.0300 
     39 H39       -13.5025  -17.3818   36.9441 H         1 UNK         0.0300 
     40 H40       -17.9225   -8.4872   37.8889 H         1 UNK         0.0300 
     41 H41       -18.0430  -10.2408   37.9175 H         1 UNK         0.0300 
     42 H42       -17.1148   -9.4194   36.6364 H         1 UNK         0.0300 
     43 H43       -14.5875   -7.8015   39.4021 H         1 UNK         0.0300 
     44 H44       -13.9730   -7.7633   41.0459 H         1 UNK         0.0300 
     45 H45       -15.4728   -8.6156   40.7242 H         1 UNK         0.0300 
@<TRIPOS>BOND
     1    1    4 ar   
     2    1    8 ar   
     3    1   26 1    
     4    2    5 ar   
     5    2    9 ar   
     6    2   27 1    
     7    3    6 ar   
     8    3    9 ar   
     9    3   28 1    
    10    4   10 ar   
    11    4   29 1    
    12    5   12 ar   
    13    5   30 1    
    14    6   12 ar   
    15    6   31 1    
    16    7    8 ar   
    17    7   11 ar   
    18    7   32 1    
    19    8   13 1    
    20    9   17 1    
    21   10   11 ar   
    22   10   23 1    
    23   11   24 1    
    24   12   25 1    
    25   13   20 am   BACKBONE|DICT|INTERRES
    26   13   21 2    
    27   14   16 1    
    28   14   20 1    
    29   14   33 1    
    30   14   34 1    
    31   15   17 1    
    32   15   20 1    
    33   15   35 1    
    34   15   36 1    
    35   16   22 1    
    36   16   37 1    
    37   16   38 1    
    38   17   22 1    
    39   17   39 1    
    40   18   23 1    
    41   18   40 1    
    42   18   41 1    
    43   18   42 1    
    44   19   24 1    
    45   19   43 1    
    46   19   44 1    
    47   19   45 1    
@<TRIPOS>SUBSTRUCTURE
     1 UNK         1 GROUP             0       ****    0 ROOT    
@<TRIPOS>MOLECULE
ZINC29113736_58
48   50    1
SMALL
USER_CHARGES


@<TRIPOS>ATOM
      1 C1         -4.1463  -10.3901   37.3546 C.ar      1 UNK        -0.1150 
      2 C2         -5.9647   -9.0971   36.3683 C.ar      1 UNK        -0.1150 
      3 C3         -3.7398  -10.7971   36.0680 C.ar      1 UNK        -0.1150 
      4 C4         -5.5569   -9.5051   35.0829 C.ar      1 UNK        -0.1150 
      5 C5         -6.7813   -4.0466   39.4809 C.ar      1 UNK        -0.1150 
      6 C6         -7.8251   -6.0874   38.6730 C.ar      1 UNK        -0.1150 
      7 C7         -7.0023   -5.4321   39.6091 C.ar      1 UNK        -0.1150 
      8 C8         -5.2641   -9.5420   37.5106 C.ar      1 UNK        -0.0418 
      9 C9         -7.3180   -3.3140   38.3904 C.ar      1 UNK         0.0850 
     10 C10        -8.0873   -4.0058   37.4099 C.ar      1 UNK         0.0850 
     11 C11        -4.4451  -10.3552   34.9328 C.ar      1 UNK         0.2200 
     12 C12        -8.3513   -5.3834   37.5790 C.ar      1 UNK         0.1800 
     13 C13        -6.4126   -6.1792   40.7704 C.2       1 UNK         0.6150 
     14 C14        -5.1916   -8.1810   41.5639 C.3       1 UNK        -0.0500 
     15 C15        -5.1255   -7.6810   39.2078 C.3       1 UNK        -0.0500 
     16 C16        -5.7166   -9.5873   41.2234 C.3       1 UNK         0.1400 
     17 C17        -5.6984   -9.0739   38.8892 C.3       1 UNK         0.2118 
     18 C18        -8.2930   -2.4148   34.1519 C.3       1 UNK        -0.1800 
     19 C19        -6.4422   -1.2445   39.2750 C.3       1 UNK         0.1100 
     20 C20        -7.8976   -2.3989   35.6296 C.3       1 UNK         0.1400 
     21 N21        -5.6361   -7.2591   40.5162 N.am      1 UNK        -0.1400 
     22 O22        -6.6531   -5.7831   41.9090 O.2       1 UNK        -0.5000 
     23 O23        -5.2755   -9.9666   39.9200 O.3       1 UNK        -0.4000 
     24 O24        -7.1362   -1.9518   38.2572 O.3       1 UNK        -0.2850 
     25 O25        -8.6389   -3.4119   36.2932 O.3       1 UNK        -0.2850 
     26 F26        -4.0529  -10.7449   33.6978 F         1 UNK        -0.2200 
     27 Cl27       -9.3018   -6.2463   36.4233 Cl        1 UNK        -0.1800 
     28 H28        -3.6005  -10.7321   38.2222 H         1 UNK         0.1150 
     29 H29        -6.8179   -8.4419   36.4721 H         1 UNK         0.1150 
     30 H30        -2.8869  -11.4483   35.9477 H         1 UNK         0.1150 
     31 H31        -6.0941   -9.1677   34.2088 H         1 UNK         0.1150 
     32 H32        -6.1877   -3.5665   40.2447 H         1 UNK         0.1150 
     33 H33        -8.0514   -7.1372   38.7812 H         1 UNK         0.1150 
     34 H34        -5.5430   -7.8922   42.5561 H         1 UNK         0.0600 
     35 H35        -4.1020   -8.1821   41.6136 H         1 UNK         0.0600 
     36 H36        -4.0360   -7.7289   39.2448 H         1 UNK         0.0600 
     37 H37        -5.3509   -6.9783   38.4066 H         1 UNK         0.0600 
     38 H38        -5.3473  -10.3140   41.9474 H         1 UNK         0.0300 
     39 H39        -6.8064   -9.6180   41.2706 H         1 UNK         0.0300 
     40 H40        -6.7893   -9.0453   38.8917 H         1 UNK         0.0300 
     41 H41        -8.0724   -3.3821   33.7000 H         1 UNK         0.0600 
     42 H42        -9.3599   -2.2255   34.0327 H         1 UNK         0.0600 
     43 H43        -7.7512   -1.6509   33.5943 H         1 UNK         0.0600 
     44 H44        -6.4239   -0.1839   39.0245 H         1 UNK         0.0300 
     45 H45        -5.4076   -1.5788   39.3600 H         1 UNK         0.0300 
     46 H46        -6.9381   -1.3445   40.2416 H         1 UNK         0.0300 
     47 H47        -8.1297   -1.4236   36.0587 H         1 UNK         0.0300 
     48 H48        -6.8226   -2.5659   35.7201 H         1 UNK         0.0300 
@<TRIPOS>BOND
     1    1    3 ar   
     2    1    8 ar   
     3    1   28 1    
     4    2    4 ar   
     5    2    8 ar   
     6    2   29 1    
     7    3   11 ar   
     8    3   30 1    
     9    4   11 ar   
    10    4   31 1    
    11    5    7 ar   
    12    5    9 ar   
    13    5   32 1    
    14    6    7 ar   
    15    6   12 ar   
    16    6   33 1    
    17    7   13 1    
    18    8   17 1    
    19    9   10 ar   
    20    9   24 1    
    21   10   12 ar   
    22   10   25 1    
    23   11   26 1    
    24   12   27 1    
    25   13   21 am   BACKBONE|DICT|INTERRES
    26   13   22 2    
    27   14   16 1    
    28   14   21 1    
    29   14   34 1    
    30   14   35 1    
    31   15   17 1    
    32   15   21 1    
    33   15   36 1    
    34   15   37 1    
    35   16   23 1    
    36   16   38 1    
    37   16   39 1    
    38   17   23 1    
    39   17   40 1    
    40   18   20 1    
    41   18   41 1    
    42   18   42 1    
    43   18   43 1    
    44   19   24 1    
    45   19   44 1    
    46   19   45 1    
    47   19   46 1    
    48   20   25 1    
    49   20   47 1    
    50   20   48 1    
@<TRIPOS>SUBSTRUCTURE
     1 UNK         1 GROUP             0       ****    0 ROOT    
@<TRIPOS>MOLECULE
ZINC29325041_38
49   50    1
SMALL
USER_CHARGES


@<TRIPOS>ATOM
      1 C1         -6.0498  -13.1523   35.8031 C.ar      1 UNK        -0.1150 
      2 C2         -6.5516  -12.3863   36.8739 C.ar      1 UNK        -0.1150 
      3 C3         -7.8082  -14.8024   36.1510 C.ar      1 UNK        -0.1150 
      4 C4         -9.6697   -7.0325   39.2054 C.ar      1 UNK        -0.1150 
      5 C5        -10.7296   -9.1056   38.5247 C.ar      1 UNK        -0.1150 
      6 C6         -6.6756  -14.3611   35.4367 C.ar      1 UNK        -0.1150 
      7 C7         -7.6898  -12.8277   37.5911 C.ar      1 UNK         0.0850 
      8 C8         -9.8258   -8.4214   39.3651 C.ar      1 UNK         0.2000 
      9 C9        -10.3910   -6.3094   38.2218 C.ar      1 UNK         0.0850 
     10 C10       -11.4495   -8.4165   37.5203 C.ar      1 UNK         0.0850 
     11 C11       -11.2756   -7.0221   37.3606 C.ar      1 UNK         0.0850 
     12 C12        -8.3109  -14.0370   37.2198 C.ar      1 UNK         0.2200 
     13 C13        -7.9453  -10.9788   39.2617 C.2       1 UNK         0.5000 
     14 C14        -6.1286  -15.1785   34.2840 C.3       1 UNK        -0.0650 
     15 C15        -8.3074  -10.9250   41.7416 C.3       1 UNK        -0.1800 
     16 C16        -9.4028   -4.2261   38.9535 C.3       1 UNK         0.1100 
     17 C17       -12.4631  -10.4508   36.7125 C.3       1 UNK         0.1100 
     18 C18       -11.5510   -5.2859   35.6992 C.3       1 UNK         0.1100 
     19 C19        -8.8797  -10.4975   40.3826 C.3       1 UNK         0.0625 
     20 N20        -8.2857  -12.1358   38.6779 N.am      1 UNK        -0.3850 
     21 N21        -9.0659   -9.0497   40.3695 N.pl3     1 UNK        -0.7025 
     22 O22        -6.9583  -10.3020   38.9778 O.2       1 UNK        -0.5000 
     23 O23       -10.2798   -4.9376   38.0924 O.3       1 UNK        -0.2850 
     24 O24       -12.3292   -9.0386   36.6549 O.3       1 UNK        -0.2850 
     25 O25       -12.0323   -6.4473   36.3571 O.3       1 UNK        -0.2850 
     26 F26        -9.4049  -14.4612   37.8993 F         1 UNK        -0.2200 
     27 H27        -5.1803  -12.8034   35.2640 H         1 UNK         0.1150 
     28 H28        -6.0461  -11.4654   37.1205 H         1 UNK         0.1150 
     29 H29        -8.3003  -15.7265   35.8861 H         1 UNK         0.1150 
     30 H30        -8.9885   -6.5281   39.8713 H         1 UNK         0.1150 
     31 H31       -10.8700  -10.1646   38.6422 H         1 UNK         0.1150 
     32 H32        -5.2378  -15.7236   34.5978 H         1 UNK         0.0600 
     33 H33        -6.8634  -15.9000   33.9252 H         1 UNK         0.0600 
     34 H34        -5.8589  -14.5308   33.4492 H         1 UNK         0.0600 
     35 H35        -7.3307  -10.4749   41.9261 H         1 UNK         0.0600 
     36 H36        -8.1845  -12.0074   41.7975 H         1 UNK         0.0600 
     37 H37        -8.9692  -10.6303   42.5568 H         1 UNK         0.0600 
     38 H38        -9.4400   -3.1657   38.7041 H         1 UNK         0.0300 
     39 H39        -8.3700   -4.5552   38.8332 H         1 UNK         0.0300 
     40 H40        -9.6990   -4.3272   39.9984 H         1 UNK         0.0300 
     41 H41       -13.1506  -10.7775   35.9325 H         1 UNK         0.0300 
     42 H42       -12.8746  -10.7730   37.6698 H         1 UNK         0.0300 
     43 H43       -11.5089  -10.9507   36.5390 H         1 UNK         0.0300 
     44 H44       -12.0206   -5.2132   34.7187 H         1 UNK         0.0300 
     45 H45       -10.4718   -5.3176   35.5428 H         1 UNK         0.0300 
     46 H46       -11.8154   -4.3837   36.2508 H         1 UNK         0.0300 
     47 H47        -9.8485  -10.9883   40.2938 H         1 UNK         0.0600 
     48 H48        -9.1042  -12.5902   39.0530 H         1 UNK         0.3000 
     49 H49        -8.1955   -8.5706   40.5604 H         1 UNK         0.3800 
@<TRIPOS>BOND
     1    1    2 ar   
     2    1    6 ar   
     3    1   27 1    
     4    2    7 ar   
     5    2   28 1    
     6    3    6 ar   
     7    3   12 ar   
     8    3   29 1    
     9    4    8 ar   
    10    4    9 ar   
    11    4   30 1    
    12    5    8 ar   
    13    5   10 ar   
    14    5   31 1    
    15    6   14 1    
    16    7   12 ar   
    17    7   20 1    
    18    8   21 1    
    19    9   11 ar   
    20    9   23 1    
    21   10   11 ar   
    22   10   24 1    
    23   11   25 1    
    24   12   26 1    
    25   13   19 1    
    26   13   20 am   BACKBONE|DICT|INTERRES
    27   13   22 2    
    28   14   32 1    
    29   14   33 1    
    30   14   34 1    
    31   15   19 1    
    32   15   35 1    
    33   15   36 1    
    34   15   37 1    
    35   16   23 1    
    36   16   38 1    
    37   16   39 1    
    38   16   40 1    
    39   17   24 1    
    40   17   41 1    
    41   17   42 1    
    42   17   43 1    
    43   18   25 1    
    44   18   44 1    
    45   18   45 1    
    46   18   46 1    
    47   19   21 1    
    48   19   47 1    
    49   20   48 1    
    50   21   49 1    
@<TRIPOS>SUBSTRUCTURE
     1 UNK         1 GROUP             0       ****    0 ROOT    
@<TRIPOS>MOLECULE
ZINC29673055_204
48   50    1
SMALL
USER_CHARGES


@<TRIPOS>ATOM
      1 C1         -6.0252  -13.0856   37.2551 C.ar      1 UNK        -0.1150 
      2 C2         -6.2162  -10.6622   37.1416 C.ar      1 UNK        -0.1150 
      3 C3         -5.7500  -13.1270   35.8735 C.ar      1 UNK        -0.1150 
      4 C4         -5.9374  -10.7038   35.7614 C.ar      1 UNK        -0.1150 
      5 C5         -6.3533  -12.6860   40.3621 C.2       1 UNK        -0.1540 
      6 C6         -6.8697  -12.0635   41.5343 C.2       1 UNK        -0.1540 
      7 C7         -8.5960   -7.2700   38.3933 C.ar      1 UNK        -0.1150 
      8 C8         -8.1997   -5.2832   39.7314 C.ar      1 UNK        -0.1150 
      9 C9         -6.2627  -11.8525   37.9042 C.ar      1 UNK        -0.4134 
     10 C10        -8.1997   -6.6831   39.6119 C.ar      1 UNK        -0.1150 
     11 C11        -9.0391   -6.4707   37.3109 C.ar      1 UNK         0.0850 
     12 C12        -8.6242   -4.4594   38.6735 C.ar      1 UNK         0.0850 
     13 C13        -9.0915   -5.0548   37.4646 C.ar      1 UNK         0.0850 
     14 C14        -5.7058  -11.9364   35.1260 C.ar      1 UNK         0.2200 
     15 C15        -6.5542  -11.8075   39.3340 C.2       1 UNK         0.5364 
     16 C16        -7.3606  -10.8502   41.1398 C.2       1 UNK         0.0080 
     17 C17        -7.7236   -7.5289   40.7525 C.2       1 UNK         0.6150 
     18 C18        -9.2212   -8.4064   35.8753 C.3       1 UNK         0.1100 
     19 C19        -8.4230   -2.1917   37.8645 C.3       1 UNK         0.1100 
     20 C20       -10.7816   -4.6129   35.8258 C.3       1 UNK         0.1100 
     21 C21        -8.0329   -9.7223   41.8601 C.3       1 UNK         0.1950 
     22 N22        -8.4180   -8.6539   40.9481 N.am      1 UNK        -0.5000 
     23 O23        -6.7850   -7.1797   41.4632 O.2       1 UNK        -0.5000 
     24 O24        -7.1745  -10.6893   39.7980 O.3       1 UNK        -0.1900 
     25 O25        -9.4066   -7.0153   36.0957 O.3       1 UNK        -0.2850 
     26 O26        -8.5756   -3.1057   38.9405 O.3       1 UNK        -0.2850 
     27 O27        -9.5650   -4.2388   36.4588 O.3       1 UNK        -0.2850 
     28 F28        -5.4417  -11.9770   33.7988 F         1 UNK        -0.2200 
     29 H29        -6.0566  -14.0124   37.8095 H         1 UNK         0.1150 
     30 H30        -6.3809   -9.7032   37.6127 H         1 UNK         0.1150 
     31 H31        -5.5711  -14.0711   35.3810 H         1 UNK         0.1150 
     32 H32        -5.8958   -9.7909   35.1859 H         1 UNK         0.1150 
     33 H33        -5.8833  -13.6539   40.2768 H         1 UNK         0.1260 
     34 H34        -6.8799  -12.4554   42.5411 H         1 UNK         0.1260 
     35 H35        -8.5363   -8.3434   38.3014 H         1 UNK         0.1150 
     36 H36        -7.8614   -4.8270   40.6514 H         1 UNK         0.1150 
     37 H37        -9.5067   -8.6483   34.8516 H         1 UNK         0.0300 
     38 H38        -9.8449   -9.0051   36.5401 H         1 UNK         0.0300 
     39 H39        -8.1766   -8.6929   35.9994 H         1 UNK         0.0300 
     40 H40        -8.0280   -1.2520   38.2495 H         1 UNK         0.0300 
     41 H41        -9.3822   -1.9707   37.3962 H         1 UNK         0.0300 
     42 H42        -7.7222   -2.5560   37.1118 H         1 UNK         0.0300 
     43 H43       -11.3255   -3.7133   35.5387 H         1 UNK         0.0300 
     44 H44       -11.4325   -5.1959   36.4796 H         1 UNK         0.0300 
     45 H45       -10.5890   -5.1797   34.9146 H         1 UNK         0.0300 
     46 H46        -8.9317  -10.0890   42.3562 H         1 UNK         0.0600 
     47 H47        -7.3809   -9.3482   42.6520 H         1 UNK         0.0600 
     48 H48        -9.1946   -8.8248   40.3307 H         1 UNK         0.3000 
@<TRIPOS>BOND
     1    1    3 ar   
     2    1    9 ar   
     3    1   29 1    
     4    2    4 ar   
     5    2    9 ar   
     6    2   30 1    
     7    3   14 ar   
     8    3   31 1    
     9    4   14 ar   
    10    4   32 1    
    11    5    6 1    
    12    5   15 2    
    13    5   33 1    
    14    6   16 2    
    15    6   34 1    
    16    7   10 ar   
    17    7   11 ar   
    18    7   35 1    
    19    8   10 ar   
    20    8   12 ar   
    21    8   36 1    
    22    9   15 1    
    23   10   17 1    
    24   11   13 ar   
    25   11   25 1    
    26   12   13 ar   
    27   12   26 1    
    28   13   27 1    
    29   14   28 1    
    30   15   24 1    
    31   16   21 1    
    32   16   24 1    
    33   17   22 am   BACKBONE|DICT|INTERRES
    34   17   23 2    
    35   18   25 1    
    36   18   37 1    
    37   18   38 1    
    38   18   39 1    
    39   19   26 1    
    40   19   40 1    
    41   19   41 1    
    42   19   42 1    
    43   20   27 1    
    44   20   43 1    
    45   20   44 1    
    46   20   45 1    
    47   21   22 1    
    48   21   46 1    
    49   21   47 1    
    50   22   48 1    
@<TRIPOS>SUBSTRUCTURE
     1 UNK         1 GROUP             0       ****    0 ROOT    
@<TRIPOS>MOLECULE
ZINC30561864_114
52   54    1
SMALL
USER_CHARGES


@<TRIPOS>ATOM
      1 C1         -3.8821  -11.9987   36.7909 C.2       1 UNK        -0.0738 
      2 C2         -8.8155   -5.9926   38.4019 C.ar      1 UNK        -0.1150 
      3 C3         -7.2318   -4.3725   39.2729 C.ar      1 UNK        -0.1150 
      4 C4         -4.0351  -11.6565   35.4727 C.2       1 UNK        -0.3255 
      5 C5         -4.0252   -9.6899   36.9828 C.2       1 UNK        -0.3255 
      6 C6         -3.8788  -10.8708   37.6671 C.2       1 UNK        -0.0677 
      7 C7         -7.7738   -5.6774   39.3007 C.ar      1 UNK        -0.0383 
      8 C8         -9.3147   -5.0284   37.4948 C.ar      1 UNK         0.0850 
      9 C9         -7.7166   -3.3831   38.3813 C.ar      1 UNK         0.0850 
     10 C10        -8.7564   -3.7299   37.4720 C.ar      1 UNK         0.0850 
     11 C11        -6.7098   -6.4969   41.4025 C.2       1 UNK         0.5000 
     12 C12        -5.1645   -9.2566   40.2297 C.2       1 UNK         0.5000 
     13 C13        -6.2640   -7.8095   42.0214 C.3       1 UNK        -0.1200 
     14 C14        -7.4086   -8.1077   39.9047 C.3       1 UNK        -0.0500 
     15 C15        -6.4909   -8.8393   40.9015 C.3       1 UNK        -0.0600 
     16 C16        -5.9841  -11.5922   39.9861 C.3       1 UNK        -0.1100 
     17 C17       -10.9329   -6.5707   36.5902 C.3       1 UNK         0.1100 
     18 C18        -6.2398   -1.7239   39.3353 C.3       1 UNK         0.1100 
     19 C19        -8.4704   -1.8919   35.9398 C.3       1 UNK         0.1100 
     20 C20        -3.7402  -10.9582   39.1613 C.3       1 UNK         0.0650 
     21 N21        -7.2726   -6.6830   40.1920 N.am      1 UNK        -0.0317 
     22 N22        -4.9693  -10.5428   39.8511 N.am      1 UNK        -0.1400 
     23 O23        -6.5719   -5.4309   42.0001 O.2       1 UNK        -0.5000 
     24 O24        -4.3190   -8.3834   40.0356 O.2       1 UNK        -0.5000 
     25 O25       -10.3323   -5.2851   36.5968 O.3       1 UNK        -0.2850 
     26 O26        -7.2271   -2.0908   38.3816 O.3       1 UNK        -0.2850 
     27 O27        -9.3085   -2.8611   36.5510 O.3       1 UNK        -0.2850 
     28 S28        -4.1774   -9.9347   35.2663 S.3       1 UNK         0.0328 
     29 H29        -3.7746  -13.0115   37.1523 H         1 UNK         0.1211 
     30 H30        -9.2379   -6.9831   38.4178 H         1 UNK         0.1150 
     31 H31        -6.4247   -4.1383   39.9475 H         1 UNK         0.1150 
     32 H32        -4.0696  -12.3054   34.6091 H         1 UNK         0.2618 
     33 H33        -4.0445   -8.6851   37.3870 H         1 UNK         0.2618 
     34 H34        -5.2293   -7.7392   42.3607 H         1 UNK         0.0600 
     35 H35        -6.8873   -8.0223   42.8896 H         1 UNK         0.0600 
     36 H36        -7.1464   -8.3170   38.8653 H         1 UNK         0.0600 
     37 H37        -8.4449   -8.4129   40.0550 H         1 UNK         0.0600 
     38 H38        -7.0056   -9.6986   41.3270 H         1 UNK         0.0600 
     39 H39        -6.9362  -11.2727   39.5600 H         1 UNK         0.0600 
     40 H40        -6.1351  -11.8511   41.0347 H         1 UNK         0.0600 
     41 H41        -5.7000  -12.5055   39.4614 H         1 UNK         0.0600 
     42 H42       -11.7191   -6.5943   35.8356 H         1 UNK         0.0300 
     43 H43       -11.3934   -6.8013   37.5519 H         1 UNK         0.0300 
     44 H44       -10.2100   -7.3471   36.3362 H         1 UNK         0.0300 
     45 H45        -6.0041   -0.6664   39.2178 H         1 UNK         0.0300 
     46 H46        -5.3154   -2.2838   39.1872 H         1 UNK         0.0300 
     47 H47        -6.5939   -1.8691   40.3569 H         1 UNK         0.0300 
     48 H48        -8.8868   -1.6230   34.9692 H         1 UNK         0.0300 
     49 H49        -7.4597   -2.2663   35.7699 H         1 UNK         0.0300 
     50 H50        -8.4250   -0.9801   36.5356 H         1 UNK         0.0300 
     51 H51        -3.4809  -11.9741   39.4617 H         1 UNK         0.0600 
     52 H52        -2.8898  -10.3571   39.4897 H         1 UNK         0.0600 
@<TRIPOS>BOND
     1    1    4 2    
     2    1    6 1    
     3    1   29 1    
     4    2    7 ar   
     5    2    8 ar   
     6    2   30 1    
     7    3    7 ar   
     8    3    9 ar   
     9    3   31 1    
    10    4   28 1    
    11    4   32 1    
    12    5    6 2    
    13    5   28 1    
    14    5   33 1    
    15    6   20 1    
    16    7   21 1    
    17    8   10 ar   
    18    8   25 1    
    19    9   10 ar   
    20    9   26 1    
    21   10   27 1    
    22   11   13 1    
    23   11   21 am   BACKBONE|DICT|INTERRES
    24   11   23 2    
    25   12   15 1    
    26   12   22 am   BACKBONE|DICT|INTERRES
    27   12   24 2    
    28   13   15 1    
    29   13   34 1    
    30   13   35 1    
    31   14   15 1    
    32   14   21 1    
    33   14   36 1    
    34   14   37 1    
    35   15   38 1    
    36   16   22 1    
    37   16   39 1    
    38   16   40 1    
    39   16   41 1    
    40   17   25 1    
    41   17   42 1    
    42   17   43 1    
    43   17   44 1    
    44   18   26 1    
    45   18   45 1    
    46   18   46 1    
    47   18   47 1    
    48   19   27 1    
    49   19   48 1    
    50   19   49 1    
    51   19   50 1    
    52   20   22 1    
    53   20   51 1    
    54   20   52 1    
@<TRIPOS>SUBSTRUCTURE
     1 UNK         1 GROUP             0       ****    0 ROOT    
@<TRIPOS>MOLECULE
ZINC30763262_13
54   56    1
SMALL
USER_CHARGES


@<TRIPOS>ATOM
      1 C1         -5.2740  -10.5109   35.0117 C.ar      1 UNK        -0.1150 
      2 C2         -5.5221  -11.2692   36.1717 C.ar      1 UNK        -0.1150 
      3 C3         -4.6393   -9.2586   35.1138 C.ar      1 UNK        -0.1150 
      4 C4         -5.1416  -10.7736   37.4339 C.ar      1 UNK        -0.1150 
      5 C5         -4.2592   -8.7625   36.3757 C.ar      1 UNK        -0.1150 
      6 C6         -6.1457   -5.5110   37.2930 C.ar      1 UNK        -0.1150 
      7 C7         -6.1706   -3.8561   39.0718 C.ar      1 UNK        -0.1150 
      8 C8         -4.5161   -9.5136   37.5429 C.ar      1 UNK        -0.1150 
      9 C9         -5.5328   -4.9263   38.4172 C.ar      1 UNK        -0.1150 
     10 C10        -7.4056   -5.0642   36.8248 C.ar      1 UNK         0.0850 
     11 C11        -7.4204   -3.3740   38.6157 C.ar      1 UNK         0.0850 
     12 C12        -8.0310   -3.9654   37.4839 C.ar      1 UNK         0.0850 
     13 C13        -4.2573   -5.9917   40.3456 C.2       1 UNK         0.5000 
     14 C14        -5.5974   -9.1136   41.7931 C.3       1 UNK        -0.1200 
     15 C15        -6.2007   -9.0943   40.3956 C.3       1 UNK        -0.1200 
     16 C16        -4.9663   -7.7292   41.9381 C.3       1 UNK        -0.0500 
     17 C17        -5.2663   -8.1837   39.5872 C.3       1 UNK         0.0100 
     18 C18        -7.5166   -6.8873   35.2424 C.3       1 UNK         0.1100 
     19 C19        -7.5383   -1.7449   40.3852 C.3       1 UNK         0.1100 
     20 C20        -9.6104   -3.4175   35.7466 C.3       1 UNK         0.1100 
     21 C21        -4.1852   -5.4421   38.9106 C.3       1 UNK        -0.0050 
     22 C22        -4.1180   -8.9656   38.9030 C.3       1 UNK        -0.0050 
     23 N23        -4.7456   -7.2330   40.5787 N.am      1 UNK        -0.1400 
     24 O24        -3.8679   -5.2682   41.2624 O.2       1 UNK        -0.5000 
     25 O25        -8.0501   -5.6795   35.7688 O.3       1 UNK        -0.2850 
     26 O26        -8.0945   -2.3302   39.2177 O.3       1 UNK        -0.2850 
     27 O27        -9.2504   -3.4289   37.1190 O.3       1 UNK        -0.2850 
     28 H28        -5.5645  -10.8934   34.0436 H         1 UNK         0.1150 
     29 H29        -6.0030  -12.2337   36.0932 H         1 UNK         0.1150 
     30 H30        -4.4404   -8.6807   34.2227 H         1 UNK         0.1150 
     31 H31        -5.3328  -11.3679   38.3155 H         1 UNK         0.1150 
     32 H32        -3.7659   -7.8040   36.4387 H         1 UNK         0.1150 
     33 H33        -5.6357   -6.3265   36.8073 H         1 UNK         0.1150 
     34 H34        -5.6810   -3.4181   39.9288 H         1 UNK         0.1150 
     35 H35        -6.3344   -9.3240   42.5690 H         1 UNK         0.0600 
     36 H36        -4.8241   -9.8806   41.8526 H         1 UNK         0.0600 
     37 H37        -6.3217  -10.0910   39.9730 H         1 UNK         0.0600 
     38 H38        -7.1933   -8.6425   40.4393 H         1 UNK         0.0600 
     39 H39        -5.6462   -7.0523   42.4588 H         1 UNK         0.0600 
     40 H40        -4.0351   -7.7667   42.5059 H         1 UNK         0.0600 
     41 H41        -5.8534   -7.6588   38.8364 H         1 UNK         0.0600 
     42 H42        -8.1955   -7.2790   34.4853 H         1 UNK         0.0300 
     43 H43        -7.4110   -7.6515   36.0142 H         1 UNK         0.0300 
     44 H44        -6.5520   -6.7214   34.7616 H         1 UNK         0.0300 
     45 H45        -8.2071   -0.9650   40.7483 H         1 UNK         0.0300 
     46 H46        -6.5734   -1.2808   40.1774 H         1 UNK         0.0300 
     47 H47        -7.4241   -2.4788   41.1842 H         1 UNK         0.0300 
     48 H48       -10.3211   -2.6100   35.5730 H         1 UNK         0.0300 
     49 H49       -10.1021   -4.3476   35.4620 H         1 UNK         0.0300 
     50 H50        -8.7522   -3.2440   35.0957 H         1 UNK         0.0300 
     51 H51        -3.7834   -6.1919   38.2330 H         1 UNK         0.0600 
     52 H52        -3.4751   -4.6146   38.8922 H         1 UNK         0.0600 
     53 H53        -3.7758   -9.7825   39.5397 H         1 UNK         0.0600 
     54 H54        -3.2420   -8.3325   38.7630 H         1 UNK         0.0600 
@<TRIPOS>BOND
     1    1    2 ar   
     2    1    3 ar   
     3    1   28 1    
     4    2    4 ar   
     5    2   29 1    
     6    3    5 ar   
     7    3   30 1    
     8    4    8 ar   
     9    4   31 1    
    10    5    8 ar   
    11    5   32 1    
    12    6    9 ar   
    13    6   10 ar   
    14    6   33 1    
    15    7    9 ar   
    16    7   11 ar   
    17    7   34 1    
    18    8   22 1    
    19    9   21 1    
    20   10   12 ar   
    21   10   25 1    
    22   11   12 ar   
    23   11   26 1    
    24   12   27 1    
    25   13   21 1    
    26   13   23 am   BACKBONE|DICT|INTERRES
    27   13   24 2    
    28   14   15 1    
    29   14   16 1    
    30   14   35 1    
    31   14   36 1    
    32   15   17 1    
    33   15   37 1    
    34   15   38 1    
    35   16   23 1    
    36   16   39 1    
    37   16   40 1    
    38   17   22 1    
    39   17   23 1    
    40   17   41 1    
    41   18   25 1    
    42   18   42 1    
    43   18   43 1    
    44   18   44 1    
    45   19   26 1    
    46   19   45 1    
    47   19   46 1    
    48   19   47 1    
    49   20   27 1    
    50   20   48 1    
    51   20   49 1    
    52   20   50 1    
    53   21   51 1    
    54   21   52 1    
    55   22   53 1    
    56   22   54 1    
@<TRIPOS>SUBSTRUCTURE
     1 UNK         1 GROUP             0       ****    0 ROOT    
@<TRIPOS>MOLECULE
ZINC30763263_92
54   56    1
SMALL
USER_CHARGES


@<TRIPOS>ATOM
      1 C1         -5.8970  -11.4205   35.3473 C.ar      1 UNK        -0.1150 
      2 C2         -5.1627  -10.2232   35.4431 C.ar      1 UNK        -0.1150 
      3 C3         -6.7401  -11.8144   36.4040 C.ar      1 UNK        -0.1150 
      4 C4         -5.2722   -9.4198   36.5944 C.ar      1 UNK        -0.1150 
      5 C5         -6.8504  -11.0113   37.5556 C.ar      1 UNK        -0.1150 
      6 C6         -6.4275   -5.6808   37.3217 C.ar      1 UNK        -0.1150 
      7 C7         -6.8160   -4.2636   39.2558 C.ar      1 UNK        -0.1150 
      8 C8         -6.1170   -9.8102   37.6561 C.ar      1 UNK        -0.1150 
      9 C9         -6.0309   -5.2280   38.5950 C.ar      1 UNK        -0.1150 
     10 C10        -7.6177   -5.2139   36.7115 C.ar      1 UNK         0.0850 
     11 C11        -7.9982   -3.7620   38.6620 C.ar      1 UNK         0.0850 
     12 C12        -8.3905   -4.2225   37.3829 C.ar      1 UNK         0.0850 
     13 C13        -4.9846   -6.4155   40.6060 C.2       1 UNK         0.5000 
     14 C14        -5.1958   -9.9097   41.7939 C.3       1 UNK        -0.1200 
     15 C15        -4.5505  -10.0649   40.4246 C.3       1 UNK        -0.1200 
     16 C16        -5.1670   -8.4021   42.0446 C.3       1 UNK        -0.0500 
     17 C17        -4.9285   -8.7787   39.6769 C.3       1 UNK         0.0100 
     18 C18        -7.4706   -6.8958   34.9866 C.3       1 UNK         0.1100 
     19 C19        -8.4825   -2.3846   40.5765 C.3       1 UNK         0.1100 
     20 C20        -9.6731   -3.4779   35.4849 C.3       1 UNK         0.1100 
     21 C21        -4.7481   -5.7563   39.2325 C.3       1 UNK        -0.0050 
     22 C22        -6.2509   -8.9366   38.8920 C.3       1 UNK        -0.0050 
     23 N23        -5.0622   -7.7630   40.7304 N.am      1 UNK        -0.1400 
     24 O24        -5.0746   -5.6783   41.5885 O.2       1 UNK        -0.5000 
     25 O25        -8.0569   -5.7069   35.4983 O.3       1 UNK        -0.2850 
     26 O26        -8.8082   -2.8205   39.2653 O.3       1 UNK        -0.2850 
     27 O27        -9.5589   -3.6798   36.8852 O.3       1 UNK        -0.2850 
     28 H28        -5.8138  -12.0374   34.4642 H         1 UNK         0.1150 
     29 H29        -4.5145   -9.9227   34.6325 H         1 UNK         0.1150 
     30 H30        -7.3044  -12.7328   36.3310 H         1 UNK         0.1150 
     31 H31        -4.7042   -8.5037   36.6552 H         1 UNK         0.1150 
     32 H32        -7.5032  -11.3226   38.3586 H         1 UNK         0.1150 
     33 H33        -5.8064   -6.4094   36.8269 H         1 UNK         0.1150 
     34 H34        -6.4915   -3.9174   40.2255 H         1 UNK         0.1150 
     35 H35        -6.2290  -10.2581   41.7571 H         1 UNK         0.0600 
     36 H36        -4.6822  -10.4770   42.5710 H         1 UNK         0.0600 
     37 H37        -3.4666  -10.1126   40.5402 H         1 UNK         0.0600 
     38 H38        -4.8602  -10.9764   39.9113 H         1 UNK         0.0600 
     39 H39        -6.0563   -8.0670   42.5816 H         1 UNK         0.0600 
     40 H40        -4.2960   -8.1311   42.6441 H         1 UNK         0.0600 
     41 H41        -4.1135   -8.5224   39.0011 H         1 UNK         0.0600 
     42 H42        -8.0219   -7.2153   34.1026 H         1 UNK         0.0300 
     43 H43        -7.5174   -7.7089   35.7123 H         1 UNK         0.0300 
     44 H44        -6.4350   -6.7352   34.6853 H         1 UNK         0.0300 
     45 H45        -9.2391   -1.6780   40.9173 H         1 UNK         0.0300 
     46 H46        -7.5199   -1.8720   40.5987 H         1 UNK         0.0300 
     47 H47        -8.4673   -3.2162   41.2825 H         1 UNK         0.0300 
     48 H48       -10.3802   -2.6697   35.2994 H         1 UNK         0.0300 
     49 H49       -10.0621   -4.3677   34.9896 H         1 UNK         0.0300 
     50 H50        -8.7232   -3.1931   35.0295 H         1 UNK         0.0300 
     51 H51        -4.2219   -6.4174   38.5481 H         1 UNK         0.0600 
     52 H52        -4.0792   -4.9087   39.3844 H         1 UNK         0.0600 
     53 H53        -6.6332   -7.9725   38.5707 H         1 UNK         0.0600 
     54 H54        -7.0251   -9.3406   39.5458 H         1 UNK         0.0600 
@<TRIPOS>BOND
     1    1    2 ar   
     2    1    3 ar   
     3    1   28 1    
     4    2    4 ar   
     5    2   29 1    
     6    3    5 ar   
     7    3   30 1    
     8    4    8 ar   
     9    4   31 1    
    10    5    8 ar   
    11    5   32 1    
    12    6    9 ar   
    13    6   10 ar   
    14    6   33 1    
    15    7    9 ar   
    16    7   11 ar   
    17    7   34 1    
    18    8   22 1    
    19    9   21 1    
    20   10   12 ar   
    21   10   25 1    
    22   11   12 ar   
    23   11   26 1    
    24   12   27 1    
    25   13   21 1    
    26   13   23 am   BACKBONE|DICT|INTERRES
    27   13   24 2    
    28   14   15 1    
    29   14   16 1    
    30   14   35 1    
    31   14   36 1    
    32   15   17 1    
    33   15   37 1    
    34   15   38 1    
    35   16   23 1    
    36   16   39 1    
    37   16   40 1    
    38   17   22 1    
    39   17   23 1    
    40   17   41 1    
    41   18   25 1    
    42   18   42 1    
    43   18   43 1    
    44   18   44 1    
    45   19   26 1    
    46   19   45 1    
    47   19   46 1    
    48   19   47 1    
    49   20   27 1    
    50   20   48 1    
    51   20   49 1    
    52   20   50 1    
    53   21   51 1    
    54   21   52 1    
    55   22   53 1    
    56   22   54 1    
@<TRIPOS>SUBSTRUCTURE
     1 UNK         1 GROUP             0       ****    0 ROOT    
@<TRIPOS>MOLECULE
ZINC30782025_7
48   51    1
SMALL
USER_CHARGES


@<TRIPOS>ATOM
      1 C1         -4.8825  -11.0959   37.3141 C.ar      1 UNK        -0.1150 
      2 C2         -4.4104   -8.8344   36.5339 C.ar      1 UNK        -0.1150 
      3 C3         -4.6246  -11.5933   36.0218 C.ar      1 UNK        -0.1150 
      4 C4         -4.1536   -9.3333   35.2424 C.ar      1 UNK        -0.1150 
      5 C5         -6.8907   -3.9326   39.8063 C.ar      1 UNK        -0.1150 
      6 C6         -7.5891   -5.8155   38.4408 C.ar      1 UNK        -0.1150 
      7 C7         -6.9541   -5.3231   39.5980 C.ar      1 UNK         0.0000 
      8 C8         -4.7701   -9.7119   37.5845 C.ar      1 UNK         0.0044 
      9 C9         -4.2561  -10.7145   34.9839 C.ar      1 UNK        -0.1150 
     10 C10        -7.4354   -3.0333   38.8603 C.ar      1 UNK         0.0850 
     11 C11        -8.1356   -4.9408   37.4699 C.ar      1 UNK         0.0850 
     12 C12        -8.0379   -3.5346   37.6822 C.ar      1 UNK         0.0850 
     13 C13        -6.3607   -6.2299   40.5846 C.ar      1 UNK         0.4100 
     14 C14        -5.3413   -7.8124   41.5349 C.ar      1 UNK         0.5625 
     15 C15        -5.0548   -9.1794   38.9458 C.2       1 UNK         0.3492 
     16 C16        -4.9043  -10.0776   40.1793 C.3       1 UNK         0.0836 
     17 C17        -3.9800  -11.2495   33.5938 C.3       1 UNK        -0.0650 
     18 C18        -6.8461   -1.1225   40.2028 C.3       1 UNK         0.1100 
     19 C19        -8.8264   -6.8108   36.1020 C.3       1 UNK         0.1100 
     20 C20        -8.4834   -2.8388   35.4181 C.3       1 UNK         0.1100 
     21 N21        -6.3944   -5.9727   41.9000 N.2       1 UNK        -0.3633 
     22 N22        -5.7271   -7.0090   42.5217 N.2       1 UNK        -0.3633 
     23 N23        -5.4438   -7.9688   39.0680 N.2       1 UNK        -0.3897 
     24 N24        -5.7109   -7.3864   40.3136 N.pl3     1 UNK        -0.0934 
     25 O25        -7.3992   -1.6612   39.0111 O.3       1 UNK        -0.2850 
     26 O26        -8.7804   -5.4110   36.3417 O.3       1 UNK        -0.2850 
     27 O27        -8.5292   -2.5806   36.8130 O.3       1 UNK        -0.2850 
     28 S28        -4.4127   -9.2842   41.7406 S.3       1 UNK        -0.3200 
     29 H29        -5.1757  -11.7939   38.0843 H         1 UNK         0.1150 
     30 H30        -4.3250   -7.7711   36.7108 H         1 UNK         0.1150 
     31 H31        -4.7144  -12.6533   35.8296 H         1 UNK         0.1150 
     32 H32        -3.8776   -8.6495   34.4521 H         1 UNK         0.1150 
     33 H33        -6.4106   -3.5780   40.7057 H         1 UNK         0.1150 
     34 H34        -7.6561   -6.8841   38.3225 H         1 UNK         0.1150 
     35 H35        -5.8573  -10.5794   40.3472 H         1 UNK         0.0600 
     36 H36        -4.1703  -10.8566   39.9756 H         1 UNK         0.0600 
     37 H37        -4.8867  -11.2137   32.9895 H         1 UNK         0.0600 
     38 H38        -3.2113  -10.6578   33.0956 H         1 UNK         0.0600 
     39 H39        -3.6339  -12.2828   33.6332 H         1 UNK         0.0600 
     40 H40        -6.9272   -0.0359   40.1764 H         1 UNK         0.0300 
     41 H41        -5.7884   -1.3712   40.2991 H         1 UNK         0.0300 
     42 H42        -7.3831   -1.4710   41.0863 H         1 UNK         0.0300 
     43 H43        -9.3288   -6.9947   35.1524 H         1 UNK         0.0300 
     44 H44        -9.3915   -7.3296   36.8773 H         1 UNK         0.0300 
     45 H45        -7.8253   -7.2393   36.0319 H         1 UNK         0.0300 
     46 H46        -8.4598   -1.8904   34.8819 H         1 UNK         0.0300 
     47 H47        -9.3734   -3.3744   35.0883 H         1 UNK         0.0300 
     48 H48        -7.5931   -3.4001   35.1305 H         1 UNK         0.0300 
@<TRIPOS>BOND
     1    1    3 ar   
     2    1    8 ar   
     3    1   29 1    
     4    2    4 ar   
     5    2    8 ar   
     6    2   30 1    
     7    3    9 ar   
     8    3   31 1    
     9    4    9 ar   
    10    4   32 1    
    11    5    7 ar   
    12    5   10 ar   
    13    5   33 1    
    14    6    7 ar   
    15    6   11 ar   
    16    6   34 1    
    17    7   13 1    
    18    8   15 1    
    19    9   17 1    
    20   10   12 ar   
    21   10   25 1    
    22   11   12 ar   
    23   11   26 1    
    24   12   27 1    
    25   13   21 ar   
    26   13   24 ar   
    27   14   22 ar   
    28   14   24 ar   
    29   14   28 1    
    30   15   16 1    
    31   15   23 2    
    32   16   28 1    
    33   16   35 1    
    34   16   36 1    
    35   17   37 1    
    36   17   38 1    
    37   17   39 1    
    38   18   25 1    
    39   18   40 1    
    40   18   41 1    
    41   18   42 1    
    42   19   26 1    
    43   19   43 1    
    44   19   44 1    
    45   19   45 1    
    46   20   27 1    
    47   20   46 1    
    48   20   47 1    
    49   20   48 1    
    50   21   22 ar   
    51   23   24 1    
@<TRIPOS>SUBSTRUCTURE
     1 UNK         1 GROUP             0       ****    0 ROOT    
@<TRIPOS>MOLECULE
ZINC30782634_22
48   52    1
SMALL
USER_CHARGES


@<TRIPOS>ATOM
      1 C1         -3.9038  -11.1467   33.2158 C.ar      1 UNK        -0.1925 
      2 C2         -3.7786  -12.3643   33.9184 C.ar      1 UNK        -0.1228 
      3 C3         -4.2289   -9.9526   33.8975 C.ar      1 UNK        -0.3038 
      4 C4         -3.9790  -12.3919   35.3123 C.ar      1 UNK        -0.3245 
      5 C5         -4.7661   -8.9921   36.3055 C.2       1 UNK        -0.5146 
      6 C6         -6.8733   -3.9989   39.8108 C.ar      1 UNK        -0.1150 
      7 C7         -7.6367   -5.8347   38.4157 C.ar      1 UNK        -0.1150 
      8 C8         -4.4347   -9.9524   35.2961 C.ar      1 UNK         0.2581 
      9 C9         -6.9892   -5.3820   39.5818 C.ar      1 UNK         0.0000 
     10 C10        -4.3002  -11.1933   35.9682 C.ar      1 UNK         0.3230 
     11 C11        -7.3779   -3.0669   38.8743 C.ar      1 UNK         0.0850 
     12 C12        -8.1492   -4.9268   37.4567 C.ar      1 UNK         0.0850 
     13 C13        -7.9979   -3.5279   37.6884 C.ar      1 UNK         0.0850 
     14 C14        -4.8046   -9.6799   37.4986 C.2       1 UNK         0.2513 
     15 C15        -6.4365   -6.3255   40.5557 C.ar      1 UNK         0.4100 
     16 C16        -5.4691   -7.9555   41.4791 C.ar      1 UNK         0.5625 
     17 C17        -5.1034   -9.2209   38.8523 C.2       1 UNK         0.3536 
     18 C18        -4.9883  -10.1741   40.0465 C.3       1 UNK         0.0836 
     19 C19        -6.7231   -1.1987   40.2458 C.3       1 UNK         0.1100 
     20 C20        -8.9585   -6.7525   36.0926 C.3       1 UNK         0.1100 
     21 C21        -8.4644   -2.7854   35.4381 C.3       1 UNK         0.1100 
     22 N22        -6.5077   -6.1132   41.8771 N.2       1 UNK        -0.3633 
     23 N23        -5.8752   -7.1814   42.4813 N.2       1 UNK        -0.3633 
     24 N24        -5.4938   -8.0153   39.0037 N.2       1 UNK        -0.3897 
     25 N25        -5.7923   -7.4789   40.2628 N.pl3     1 UNK        -0.0934 
     26 O26        -4.5334  -11.0134   37.3150 O.3       1 UNK        -0.3115 
     27 O27        -7.2857   -1.6996   39.0424 O.3       1 UNK        -0.2850 
     28 O28        -8.8090   -5.3584   36.3221 O.3       1 UNK        -0.2850 
     29 O29        -8.4506   -2.5396   36.8358 O.3       1 UNK        -0.2850 
     30 S30        -4.5678   -9.4482   41.6631 S.3       1 UNK        -0.3200 
     31 H31        -3.7479  -11.1289   32.1452 H         1 UNK         0.1571 
     32 H32        -3.5286  -13.2730   33.3873 H         1 UNK         0.1498 
     33 H33        -4.3196   -9.0289   33.3455 H         1 UNK         0.1930 
     34 H34        -3.8876  -13.3109   35.8709 H         1 UNK         0.1955 
     35 H35        -4.9448   -7.9368   36.1638 H         1 UNK         0.2419 
     36 H36        -6.3842   -3.6766   40.7176 H         1 UNK         0.1150 
     37 H37        -7.7389   -6.8992   38.2833 H         1 UNK         0.1150 
     38 H38        -5.9409  -10.6931   40.1496 H         1 UNK         0.0600 
     39 H39        -4.2424  -10.9397   39.8339 H         1 UNK         0.0600 
     40 H40        -6.7544   -0.1094   40.2294 H         1 UNK         0.0300 
     41 H41        -5.6792   -1.4959   40.3528 H         1 UNK         0.0300 
     42 H42        -7.2871   -1.5311   41.1184 H         1 UNK         0.0300 
     43 H43        -9.4849   -6.9050   35.1506 H         1 UNK         0.0300 
     44 H44        -9.5496   -7.2254   36.8781 H         1 UNK         0.0300 
     45 H45        -7.9916   -7.2517   36.0126 H         1 UNK         0.0300 
     46 H46        -8.4227   -1.8327   34.9106 H         1 UNK         0.0300 
     47 H47        -9.3859   -3.2824   35.1340 H         1 UNK         0.0300 
     48 H48        -7.6062   -3.3762   35.1149 H         1 UNK         0.0300 
@<TRIPOS>BOND
     1    1    2 ar   
     2    1    3 ar   
     3    1   31 1    
     4    2    4 ar   
     5    2   32 1    
     6    3    8 ar   
     7    3   33 1    
     8    4   10 ar   
     9    4   34 1    
    10    5    8 1    
    11    5   14 2    
    12    5   35 1    
    13    6    9 ar   
    14    6   11 ar   
    15    6   36 1    
    16    7    9 ar   
    17    7   12 ar   
    18    7   37 1    
    19    8   10 ar   
    20    9   15 1    
    21   10   26 1    
    22   11   13 ar   
    23   11   27 1    
    24   12   13 ar   
    25   12   28 1    
    26   13   29 1    
    27   14   17 1    
    28   14   26 1    
    29   15   22 ar   
    30   15   25 ar   
    31   16   23 ar   
    32   16   25 ar   
    33   16   30 1    
    34   17   18 1    
    35   17   24 2    
    36   18   30 1    
    37   18   38 1    
    38   18   39 1    
    39   19   27 1    
    40   19   40 1    
    41   19   41 1    
    42   19   42 1    
    43   20   28 1    
    44   20   43 1    
    45   20   44 1    
    46   20   45 1    
    47   21   29 1    
    48   21   46 1    
    49   21   47 1    
    50   21   48 1    
    51   22   23 ar   
    52   24   25 1    
@<TRIPOS>SUBSTRUCTURE
     1 UNK         1 GROUP             0       ****    0 ROOT    
@<TRIPOS>MOLECULE
ZINC31176471_14
48   50    1
SMALL
USER_CHARGES


@<TRIPOS>ATOM
      1 C1        -10.6158  -17.1857   37.4627 C.ar      1 UNK        -0.1150 
      2 C2        -11.9844  -15.4662   36.4056 C.ar      1 UNK        -0.1150 
      3 C3        -10.1409  -17.5841   36.1972 C.ar      1 UNK        -0.1150 
      4 C4        -11.5069  -15.8645   35.1412 C.ar      1 UNK        -0.1150 
      5 C5        -14.1614  -12.6755   38.7623 C.ar      1 UNK        -0.1150 
      6 C6        -12.9816  -10.6957   39.5525 C.ar      1 UNK        -0.1150 
      7 C7        -13.3091  -12.0566   39.6993 C.ar      1 UNK        -0.1150 
      8 C8        -11.5439  -16.1267   37.5736 C.ar      1 UNK        -0.0418 
      9 C9        -14.2898  -10.5978   37.4950 C.ar      1 UNK        -0.1150 
     10 C10       -14.6499  -11.9584   37.6456 C.ar      1 UNK         0.0850 
     11 C11       -13.4582   -9.9558   38.4440 C.ar      1 UNK         0.0850 
     12 C12       -10.5864  -16.9241   35.0369 C.ar      1 UNK         0.2200 
     13 C13       -12.7804  -12.8272   40.8728 C.2       1 UNK         0.6150 
     14 C14       -11.6701  -14.8914   41.6648 C.3       1 UNK        -0.0500 
     15 C15       -11.4542  -14.3162   39.3346 C.3       1 UNK        -0.0500 
     16 C16       -12.2533  -16.2532   41.2504 C.3       1 UNK         0.1400 
     17 C17       -12.0571  -15.6758   38.9327 C.3       1 UNK         0.2118 
     18 C18       -14.8010   -9.8105   36.2979 C.3       1 UNK        -0.0650 
     19 C19       -15.9289  -13.8489   36.8750 C.3       1 UNK         0.1100 
     20 C20       -12.3272   -7.9607   39.1754 C.3       1 UNK         0.1100 
     21 N21       -12.0195  -13.9196   40.6281 N.am      1 UNK        -0.1400 
     22 O22       -13.0659  -12.4521   42.0082 O.2       1 UNK        -0.5000 
     23 O23       -11.7555  -16.6185   39.9636 O.3       1 UNK        -0.4000 
     24 O24       -15.4593  -12.5224   36.6808 O.3       1 UNK        -0.2850 
     25 O25       -13.1484   -8.6285   38.2284 O.3       1 UNK        -0.2850 
     26 F26       -10.1286  -17.3060   33.8221 F         1 UNK        -0.2200 
     27 H27       -10.2648  -17.6972   38.3474 H         1 UNK         0.1150 
     28 H28       -12.6861  -14.6473   36.4745 H         1 UNK         0.1150 
     29 H29        -9.4336  -18.3960   36.1130 H         1 UNK         0.1150 
     30 H30       -11.8425  -15.3588   34.2478 H         1 UNK         0.1150 
     31 H31       -14.4277  -13.7081   38.9217 H         1 UNK         0.1150 
     32 H32       -12.3503  -10.2450   40.3035 H         1 UNK         0.1150 
     33 H33       -12.0519  -14.6136   42.6489 H         1 UNK         0.0600 
     34 H34       -10.5857  -14.9533   41.7623 H         1 UNK         0.0600 
     35 H35       -10.3708  -14.4049   39.4278 H         1 UNK         0.0600 
     36 H36       -11.6135  -13.5744   38.5525 H         1 UNK         0.0600 
     37 H37       -11.9692  -17.0210   41.9704 H         1 UNK         0.0300 
     38 H38       -13.3440  -16.2204   41.2327 H         1 UNK         0.0300 
     39 H39       -13.1424  -15.5979   38.8529 H         1 UNK         0.0300 
     40 H40       -14.9822   -8.7679   36.5590 H         1 UNK         0.0600 
     41 H41       -14.0668   -9.8397   35.4934 H         1 UNK         0.0600 
     42 H42       -15.7407  -10.2118   35.9197 H         1 UNK         0.0600 
     43 H43       -16.5927  -14.1181   36.0535 H         1 UNK         0.0300 
     44 H44       -16.4988  -13.9389   37.8009 H         1 UNK         0.0300 
     45 H45       -15.1090  -14.5678   36.8828 H         1 UNK         0.0300 
     46 H46       -11.3397   -8.4198   39.2405 H         1 UNK         0.0300 
     47 H47       -12.7877   -7.9469   40.1643 H         1 UNK         0.0300 
     48 H48       -12.1888   -6.9260   38.8629 H         1 UNK         0.0300 
@<TRIPOS>BOND
     1    1    3 ar   
     2    1    8 ar   
     3    1   27 1    
     4    2    4 ar   
     5    2    8 ar   
     6    2   28 1    
     7    3   12 ar   
     8    3   29 1    
     9    4   12 ar   
    10    4   30 1    
    11    5    7 ar   
    12    5   10 ar   
    13    5   31 1    
    14    6    7 ar   
    15    6   11 ar   
    16    6   32 1    
    17    7   13 1    
    18    8   17 1    
    19    9   10 ar   
    20    9   11 ar   
    21    9   18 1    
    22   10   24 1    
    23   11   25 1    
    24   12   26 1    
    25   13   21 am   BACKBONE|DICT|INTERRES
    26   13   22 2    
    27   14   16 1    
    28   14   21 1    
    29   14   33 1    
    30   14   34 1    
    31   15   17 1    
    32   15   21 1    
    33   15   35 1    
    34   15   36 1    
    35   16   23 1    
    36   16   37 1    
    37   16   38 1    
    38   17   23 1    
    39   17   39 1    
    40   18   40 1    
    41   18   41 1    
    42   18   42 1    
    43   19   24 1    
    44   19   43 1    
    45   19   44 1    
    46   19   45 1    
    47   20   25 1    
    48   20   46 1    
    49   20   47 1    
    50   20   48 1    
@<TRIPOS>SUBSTRUCTURE
     1 UNK         1 GROUP             0       ****    0 ROOT    
@<TRIPOS>MOLECULE
ZINC31177752_17
45   47    1
SMALL
USER_CHARGES


@<TRIPOS>ATOM
      1 C1        -10.1548  -17.1009   37.5658 C.ar      1 UNK        -0.1150 
      2 C2        -11.5047  -15.3592   36.5214 C.ar      1 UNK        -0.1150 
      3 C3         -9.5980  -17.4202   36.3113 C.ar      1 UNK        -0.1150 
      4 C4        -10.9456  -15.6785   35.2680 C.ar      1 UNK        -0.1150 
      5 C5        -13.7757  -12.6597   38.8993 C.ar      1 UNK        -0.1150 
      6 C6        -12.6845  -10.7554   39.9517 C.ar      1 UNK        -0.1150 
      7 C7        -13.0036  -12.1263   39.9524 C.ar      1 UNK        -0.1150 
      8 C8        -11.1154  -16.0716   37.6770 C.ar      1 UNK        -0.0418 
      9 C9        -14.1968  -11.8399   37.8248 C.ar      1 UNK         0.0850 
     10 C10       -13.0711   -9.9259   38.8827 C.ar      1 UNK         0.0850 
     11 C11        -9.9938  -16.7098   35.1628 C.ar      1 UNK         0.2200 
     12 C12       -13.8411  -10.4703   37.8200 C.ar      1 UNK         0.2000 
     13 C13       -12.5671  -12.9921   41.0985 C.2       1 UNK         0.6150 
     14 C14       -11.5079  -15.1066   41.8216 C.3       1 UNK        -0.0500 
     15 C15       -11.1377  -14.3800   39.5548 C.3       1 UNK        -0.0500 
     16 C16       -12.0654  -16.4345   41.2820 C.3       1 UNK         0.1400 
     17 C17       -11.7162  -15.7065   39.0256 C.3       1 UNK         0.2118 
     18 C18       -15.4544  -13.6333   36.8203 C.3       1 UNK         0.1100 
     19 C19       -11.9374   -8.1013   37.8686 C.3       1 UNK         0.1100 
     20 N20       -11.7874  -14.0660   40.8312 N.am      1 UNK        -0.1400 
     21 O21       -12.9440  -12.7056   42.2324 O.2       1 UNK        -0.5000 
     22 O22       -11.4855  -16.7170   40.0089 O.3       1 UNK        -0.4000 
     23 O23       -14.9488  -12.3072   36.7661 O.3       1 UNK        -0.2850 
     24 O24       -12.6968   -8.6052   38.9594 O.3       1 UNK        -0.2850 
     25 F25        -9.4580  -17.0158   33.9586 F         1 UNK        -0.2200 
     26 Br26      -14.4760   -9.3757   36.3896 Br        1 UNK        -0.2000 
     27 H27        -9.8425  -17.6512   38.4418 H         1 UNK         0.1150 
     28 H28       -12.2307  -14.5625   36.5911 H         1 UNK         0.1150 
     29 H29        -8.8660  -18.2097   36.2265 H         1 UNK         0.1150 
     30 H30       -11.2428  -15.1341   34.3837 H         1 UNK         0.1150 
     31 H31       -14.0458  -13.7027   38.9426 H         1 UNK         0.1150 
     32 H32       -12.1213  -10.3344   40.7731 H         1 UNK         0.1150 
     33 H33       -11.9507  -14.8922   42.7960 H         1 UNK         0.0600 
     34 H34       -10.4321  -15.1820   41.9845 H         1 UNK         0.0600 
     35 H35       -10.0633  -14.4831   39.7138 H         1 UNK         0.0600 
     36 H36       -11.2414  -13.5879   38.8140 H         1 UNK         0.0600 
     37 H37       -11.8299  -17.2494   41.9668 H         1 UNK         0.0300 
     38 H38       -13.1527  -16.3945   41.1968 H         1 UNK         0.0300 
     39 H39       -12.7937  -15.6162   38.8812 H         1 UNK         0.0300 
     40 H40       -16.0744  -13.8161   35.9426 H         1 UNK         0.0300 
     41 H41       -16.0792  -13.7868   37.7013 H         1 UNK         0.0300 
     42 H42       -14.6513  -14.3707   36.8134 H         1 UNK         0.0300 
     43 H43       -11.4975   -8.8879   37.2530 H         1 UNK         0.0300 
     44 H44       -11.1214   -7.4898   38.2533 H         1 UNK         0.0300 
     45 H45       -12.5521   -7.4611   37.2362 H         1 UNK         0.0300 
@<TRIPOS>BOND
     1    1    3 ar   
     2    1    8 ar   
     3    1   27 1    
     4    2    4 ar   
     5    2    8 ar   
     6    2   28 1    
     7    3   11 ar   
     8    3   29 1    
     9    4   11 ar   
    10    4   30 1    
    11    5    7 ar   
    12    5    9 ar   
    13    5   31 1    
    14    6    7 ar   
    15    6   10 ar   
    16    6   32 1    
    17    7   13 1    
    18    8   17 1    
    19    9   12 ar   
    20    9   23 1    
    21   10   12 ar   
    22   10   24 1    
    23   11   25 1    
    24   12   26 1    
    25   13   20 am   BACKBONE|DICT|INTERRES
    26   13   21 2    
    27   14   16 1    
    28   14   20 1    
    29   14   33 1    
    30   14   34 1    
    31   15   17 1    
    32   15   20 1    
    33   15   35 1    
    34   15   36 1    
    35   16   22 1    
    36   16   37 1    
    37   16   38 1    
    38   17   22 1    
    39   17   39 1    
    40   18   23 1    
    41   18   40 1    
    42   18   41 1    
    43   18   42 1    
    44   19   24 1    
    45   19   43 1    
    46   19   44 1    
    47   19   45 1    
@<TRIPOS>SUBSTRUCTURE
     1 UNK         1 GROUP             0       ****    0 ROOT    
@<TRIPOS>MOLECULE
ZINC31785356_13
48   50    1
SMALL
USER_CHARGES


@<TRIPOS>ATOM
      1 C1         -4.2195   -8.4784   36.5113 C.ar      1 UNK        -0.1150 
      2 C2         -4.1306   -7.1241   36.8734 C.ar      1 UNK        -0.1150 
      3 C3         -4.7171   -9.4184   37.4311 C.ar      1 UNK        -0.1150 
      4 C4         -4.5477   -6.7112   38.1510 C.ar      1 UNK        -0.1150 
      5 C5         -7.6453   -5.9300   38.6556 C.ar      1 UNK        -0.1150 
      6 C6         -6.6769   -3.8871   39.5640 C.ar      1 UNK        -0.1150 
      7 C7         -6.8185   -5.2893   39.6045 C.ar      1 UNK        -0.1150 
      8 C8         -5.1544   -9.0158   38.7129 C.ar      1 UNK        -0.1150 
      9 C9         -5.0874   -7.6422   39.0748 C.ar      1 UNK        -0.0383 
     10 C10        -8.2781   -5.1910   37.6284 C.ar      1 UNK         0.0850 
     11 C11        -7.3099   -3.1252   38.5533 C.ar      1 UNK         0.0850 
     12 C12        -8.0949   -3.7890   37.5840 C.ar      1 UNK         0.0850 
     13 C13        -6.1402   -6.0741   40.6968 C.2       1 UNK         0.6150 
     14 C14        -6.0609   -9.5127   41.0690 C.3       1 UNK        -0.1200 
     15 C15        -5.2951   -8.2383   41.4416 C.3       1 UNK        -0.0500 
     16 C16        -5.6475  -10.0817   39.6962 C.3       1 UNK         0.0550 
     17 C17        -6.7791  -10.9443   39.1105 C.3       1 UNK        -0.1800 
     18 C18        -9.2079   -7.1774   36.6402 C.3       1 UNK         0.1100 
     19 C19        -6.4760   -1.0539   39.4450 C.3       1 UNK         0.1100 
     20 C20        -8.0300   -3.1055   35.3566 C.3       1 UNK         0.1100 
     21 N21        -5.5017   -7.2391   40.3876 N.am      1 UNK        -0.0317 
     22 O22        -6.1671   -5.6144   41.8399 O.2       1 UNK        -0.5000 
     23 O23        -9.0751   -5.7639   36.6581 O.3       1 UNK        -0.2850 
     24 O24        -7.1960   -1.7547   38.4424 O.3       1 UNK        -0.2850 
     25 O25        -8.7012   -3.0458   36.6038 O.3       1 UNK        -0.2850 
     26 H26        -3.8904   -8.7996   35.5336 H         1 UNK         0.1150 
     27 H27        -3.7330   -6.4018   36.1751 H         1 UNK         0.1150 
     28 H28        -4.7497  -10.4593   37.1450 H         1 UNK         0.1150 
     29 H29        -4.4444   -5.6671   38.4090 H         1 UNK         0.1150 
     30 H30        -7.7687   -6.9999   38.7253 H         1 UNK         0.1150 
     31 H31        -6.0675   -3.4177   40.3217 H         1 UNK         0.1150 
     32 H32        -5.9503  -10.2741   41.8420 H         1 UNK         0.0600 
     33 H33        -7.1223   -9.2594   41.0498 H         1 UNK         0.0600 
     34 H34        -5.6132   -7.9022   42.4303 H         1 UNK         0.0600 
     35 H35        -4.2276   -8.4469   41.5221 H         1 UNK         0.0600 
     36 H36        -4.7862  -10.7298   39.8673 H         1 UNK         0.0600 
     37 H37        -7.6384  -10.3315   38.8363 H         1 UNK         0.0600 
     38 H38        -7.1180  -11.6874   39.8329 H         1 UNK         0.0600 
     39 H39        -6.4622  -11.4870   38.2207 H         1 UNK         0.0600 
     40 H40        -9.8287   -7.4681   35.7929 H         1 UNK         0.0300 
     41 H41        -9.6943   -7.5429   37.5453 H         1 UNK         0.0300 
     42 H42        -8.2405   -7.6687   36.5241 H         1 UNK         0.0300 
     43 H43        -6.5147    0.0144   39.2329 H         1 UNK         0.0300 
     44 H44        -5.4258   -1.3481   39.4617 H         1 UNK         0.0300 
     45 H45        -6.9122   -1.2098   40.4327 H         1 UNK         0.0300 
     46 H46        -8.5287   -2.4493   34.6434 H         1 UNK         0.0300 
     47 H47        -8.0333   -4.1136   34.9414 H         1 UNK         0.0300 
     48 H48        -6.9959   -2.7715   35.4523 H         1 UNK         0.0300 
@<TRIPOS>BOND
     1    1    2 ar   
     2    1    3 ar   
     3    1   26 1    
     4    2    4 ar   
     5    2   27 1    
     6    3    8 ar   
     7    3   28 1    
     8    4    9 ar   
     9    4   29 1    
    10    5    7 ar   
    11    5   10 ar   
    12    5   30 1    
    13    6    7 ar   
    14    6   11 ar   
    15    6   31 1    
    16    7   13 1    
    17    8    9 ar   
    18    8   16 1    
    19    9   21 1    
    20   10   12 ar   
    21   10   23 1    
    22   11   12 ar   
    23   11   24 1    
    24   12   25 1    
    25   13   21 am   BACKBONE|DICT|INTERRES
    26   13   22 2    
    27   14   15 1    
    28   14   16 1    
    29   14   32 1    
    30   14   33 1    
    31   15   21 1    
    32   15   34 1    
    33   15   35 1    
    34   16   17 1    
    35   16   36 1    
    36   17   37 1    
    37   17   38 1    
    38   17   39 1    
    39   18   23 1    
    40   18   40 1    
    41   18   41 1    
    42   18   42 1    
    43   19   24 1    
    44   19   43 1    
    45   19   44 1    
    46   19   45 1    
    47   20   25 1    
    48   20   46 1    
    49   20   47 1    
    50   20   48 1    
@<TRIPOS>SUBSTRUCTURE
     1 UNK         1 GROUP             0       ****    0 ROOT    
@<TRIPOS>MOLECULE
ZINC31785360_4
48   50    1
SMALL
USER_CHARGES


@<TRIPOS>ATOM
      1 C1         -4.3450   -8.5301   36.5253 C.ar      1 UNK        -0.1150 
      2 C2         -4.2677   -7.1679   36.8572 C.ar      1 UNK        -0.1150 
      3 C3         -4.7804   -9.4585   37.4864 C.ar      1 UNK        -0.1150 
      4 C4         -4.6532   -6.7339   38.1381 C.ar      1 UNK        -0.1150 
      5 C5         -7.6947   -5.8752   38.6668 C.ar      1 UNK        -0.1150 
      6 C6         -6.6803   -3.8361   39.5338 C.ar      1 UNK        -0.1150 
      7 C7         -6.8447   -5.2353   39.5959 C.ar      1 UNK        -0.1150 
      8 C8         -5.1592   -9.0361   38.7797 C.ar      1 UNK        -0.1150 
      9 C9         -5.1460   -7.6500   39.1038 C.ar      1 UNK        -0.0383 
     10 C10        -8.3287   -5.1385   37.6384 C.ar      1 UNK         0.0850 
     11 C11        -7.3160   -3.0768   38.5228 C.ar      1 UNK         0.0850 
     12 C12        -8.1264   -3.7404   37.5749 C.ar      1 UNK         0.0850 
     13 C13        -6.1663   -6.0151   40.6922 C.2       1 UNK         0.6150 
     14 C14        -6.1630   -9.5002   41.0774 C.3       1 UNK        -0.1200 
     15 C15        -5.4671   -8.1976   41.4919 C.3       1 UNK        -0.0500 
     16 C16        -5.5447  -10.1012   39.8046 C.3       1 UNK         0.0550 
     17 C17        -4.3334  -10.9839   40.1541 C.3       1 UNK        -0.1800 
     18 C18        -9.3018   -7.1192   36.6822 C.3       1 UNK         0.1100 
     19 C19        -6.4337   -1.0081   39.3735 C.3       1 UNK         0.1100 
     20 C20        -8.0602   -3.0489   35.3526 C.3       1 UNK         0.1100 
     21 N21        -5.5819   -7.2148   40.4060 N.am      1 UNK        -0.0317 
     22 O22        -6.1426   -5.5200   41.8208 O.2       1 UNK        -0.5000 
     23 O23        -9.1440   -5.7085   36.6821 O.3       1 UNK        -0.2850 
     24 O24        -7.1825   -1.7096   38.3927 O.3       1 UNK        -0.2850 
     25 O25        -8.7400   -3.0033   36.5953 O.3       1 UNK        -0.2850 
     26 H26        -4.0509   -8.8656   35.5410 H         1 UNK         0.1150 
     27 H27        -3.9124   -6.4530   36.1291 H         1 UNK         0.1150 
     28 H28        -4.8069  -10.5077   37.2301 H         1 UNK         0.1150 
     29 H29        -4.5692   -5.6800   38.3592 H         1 UNK         0.1150 
     30 H30        -7.8343   -6.9418   38.7518 H         1 UNK         0.1150 
     31 H31        -6.0529   -3.3662   40.2764 H         1 UNK         0.1150 
     32 H32        -6.1595  -10.2233   41.8937 H         1 UNK         0.0600 
     33 H33        -7.2135   -9.2752   40.8859 H         1 UNK         0.0600 
     34 H34        -5.9011   -7.8560   42.4336 H         1 UNK         0.0600 
     35 H35        -4.4101   -8.3724   41.6946 H         1 UNK         0.0600 
     36 H36        -6.2959  -10.7439   39.3428 H         1 UNK         0.0600 
     37 H37        -3.5246  -10.3943   40.5868 H         1 UNK         0.0600 
     38 H38        -3.9358  -11.4874   39.2729 H         1 UNK         0.0600 
     39 H39        -4.6014  -11.7589   40.8724 H         1 UNK         0.0600 
     40 H40        -9.9380   -7.4082   35.8459 H         1 UNK         0.0300 
     41 H41        -9.7838   -7.4658   37.5973 H         1 UNK         0.0300 
     42 H42        -8.3449   -7.6290   36.5598 H         1 UNK         0.0300 
     43 H43        -6.4626    0.0585   39.1510 H         1 UNK         0.0300 
     44 H44        -5.3876   -1.3166   39.3726 H         1 UNK         0.0300 
     45 H45        -6.8525   -1.1473   40.3710 H         1 UNK         0.0300 
     46 H46        -8.5723   -2.4092   34.6342 H         1 UNK         0.0300 
     47 H47        -8.0341   -4.0591   34.9427 H         1 UNK         0.0300 
     48 H48        -7.0363   -2.6862   35.4540 H         1 UNK         0.0300 
@<TRIPOS>BOND
     1    1    2 ar   
     2    1    3 ar   
     3    1   26 1    
     4    2    4 ar   
     5    2   27 1    
     6    3    8 ar   
     7    3   28 1    
     8    4    9 ar   
     9    4   29 1    
    10    5    7 ar   
    11    5   10 ar   
    12    5   30 1    
    13    6    7 ar   
    14    6   11 ar   
    15    6   31 1    
    16    7   13 1    
    17    8    9 ar   
    18    8   16 1    
    19    9   21 1    
    20   10   12 ar   
    21   10   23 1    
    22   11   12 ar   
    23   11   24 1    
    24   12   25 1    
    25   13   21 am   BACKBONE|DICT|INTERRES
    26   13   22 2    
    27   14   15 1    
    28   14   16 1    
    29   14   32 1    
    30   14   33 1    
    31   15   21 1    
    32   15   34 1    
    33   15   35 1    
    34   16   17 1    
    35   16   36 1    
    36   17   37 1    
    37   17   38 1    
    38   17   39 1    
    39   18   23 1    
    40   18   40 1    
    41   18   41 1    
    42   18   42 1    
    43   19   24 1    
    44   19   43 1    
    45   19   44 1    
    46   19   45 1    
    47   20   25 1    
    48   20   46 1    
    49   20   47 1    
    50   20   48 1    
@<TRIPOS>SUBSTRUCTURE
     1 UNK         1 GROUP             0       ****    0 ROOT    
@<TRIPOS>MOLECULE
ZINC31785592_48
57   59    1
SMALL
USER_CHARGES


@<TRIPOS>ATOM
      1 C1         -4.4232   -8.7239   36.5258 C.ar      1 UNK        -0.1150 
      2 C2         -4.4244   -7.3967   36.9875 C.ar      1 UNK        -0.1150 
      3 C3         -4.9665   -9.7455   37.3254 C.ar      1 UNK        -0.1150 
      4 C4         -4.9758   -7.0917   38.2447 C.ar      1 UNK        -0.1150 
      5 C5         -8.1699   -6.5877   38.4733 C.ar      1 UNK        -0.1150 
      6 C6         -7.5391   -4.5291   39.6119 C.ar      1 UNK        -0.1150 
      7 C7         -7.5147   -5.9371   39.5420 C.ar      1 UNK        -0.1150 
      8 C8         -5.5371   -9.4519   38.5837 C.ar      1 UNK        -0.1150 
      9 C9         -5.5559   -8.1079   39.0446 C.ar      1 UNK        -0.0383 
     10 C10        -8.7928   -5.8470   37.4420 C.ar      1 UNK         0.0850 
     11 C11        -8.1746   -3.7658   38.6034 C.ar      1 UNK         0.0850 
     12 C12        -8.7881   -4.4363   37.5212 C.ar      1 UNK         0.0850 
     13 C13        -6.8620   -6.7275   40.6471 C.2       1 UNK         0.6150 
     14 C14        -6.6161  -10.1499   40.8160 C.3       1 UNK        -0.1200 
     15 C15        -5.9341   -8.8777   41.3338 C.3       1 UNK        -0.0500 
     16 C16        -6.0890  -10.5989   39.4358 C.3       1 UNK         0.0550 
     17 C17        -7.1607  -11.4131   38.6899 C.3       1 UNK        -0.1800 
     18 C18       -10.4407   -8.5384   36.9631 C.3       1 UNK        -0.1800 
     19 C19        -7.9487   -0.1931   39.5071 C.3       1 UNK        -0.1800 
     20 C20        -9.3380   -2.5704   34.4355 C.3       1 UNK        -0.1800 
     21 C21        -9.3493   -7.8260   36.1525 C.3       1 UNK         0.1400 
     22 C22        -7.7066   -1.6875   39.7231 C.3       1 UNK         0.1400 
     23 C23        -8.5519   -3.3986   35.4528 C.3       1 UNK         0.1400 
     24 N24        -6.1061   -7.8183   40.3347 N.am      1 UNK        -0.0317 
     25 O25        -7.0231   -6.3431   41.8070 O.2       1 UNK        -0.5000 
     26 O26        -9.4082   -6.4172   36.3442 O.3       1 UNK        -0.2850 
     27 O27        -8.2269   -2.3869   38.6029 O.3       1 UNK        -0.2850 
     28 O28        -9.4055   -3.7031   36.5413 O.3       1 UNK        -0.2850 
     29 H29        -3.9927   -8.9609   35.5636 H         1 UNK         0.1150 
     30 H30        -3.9942   -6.6127   36.3810 H         1 UNK         0.1150 
     31 H31        -4.9334  -10.7634   36.9660 H         1 UNK         0.1150 
     32 H32        -4.9465   -6.0666   38.5853 H         1 UNK         0.1150 
     33 H33        -8.1708   -7.6660   38.4576 H         1 UNK         0.1150 
     34 H34        -7.0606   -4.0553   40.4559 H         1 UNK         0.1150 
     35 H35        -6.5271  -10.9622   41.5382 H         1 UNK         0.0600 
     36 H36        -7.6835   -9.9349   40.7411 H         1 UNK         0.0600 
     37 H37        -6.3370   -8.6214   42.3153 H         1 UNK         0.0600 
     38 H38        -4.8676   -9.0521   41.4813 H         1 UNK         0.0600 
     39 H39        -5.2358  -11.2536   39.6199 H         1 UNK         0.0600 
     40 H40        -8.0055  -10.7840   38.4070 H         1 UNK         0.0600 
     41 H41        -7.5421  -12.2225   39.3130 H         1 UNK         0.0600 
     42 H42        -6.7687  -11.8677   37.7807 H         1 UNK         0.0600 
     43 H43       -10.3230   -8.3832   38.0348 H         1 UNK         0.0600 
     44 H44       -11.4277   -8.1682   36.6847 H         1 UNK         0.0600 
     45 H45       -10.4226   -9.6121   36.7772 H         1 UNK         0.0600 
     46 H46        -7.4503    0.1551   38.6023 H         1 UNK         0.0600 
     47 H47        -9.0138    0.0156   39.4036 H         1 UNK         0.0600 
     48 H48        -7.5709    0.3904   40.3464 H         1 UNK         0.0600 
     49 H49       -10.2035   -3.1239   34.0710 H         1 UNK         0.0600 
     50 H50        -9.6969   -1.6444   34.8847 H         1 UNK         0.0600 
     51 H51        -8.7172   -2.3119   33.5780 H         1 UNK         0.0600 
     52 H52        -9.5232   -8.0132   35.0927 H         1 UNK         0.0300 
     53 H53        -8.3563   -8.2286   36.3576 H         1 UNK         0.0300 
     54 H54        -8.2036   -2.0105   40.6394 H         1 UNK         0.0300 
     55 H55        -6.6368   -1.8747   39.8267 H         1 UNK         0.0300 
     56 H56        -7.6832   -2.8367   35.8003 H         1 UNK         0.0300 
     57 H57        -8.1879   -4.3158   34.9868 H         1 UNK         0.0300 
@<TRIPOS>BOND
     1    1    2 ar   
     2    1    3 ar   
     3    1   29 1    
     4    2    4 ar   
     5    2   30 1    
     6    3    8 ar   
     7    3   31 1    
     8    4    9 ar   
     9    4   32 1    
    10    5    7 ar   
    11    5   10 ar   
    12    5   33 1    
    13    6    7 ar   
    14    6   11 ar   
    15    6   34 1    
    16    7   13 1    
    17    8    9 ar   
    18    8   16 1    
    19    9   24 1    
    20   10   12 ar   
    21   10   26 1    
    22   11   12 ar   
    23   11   27 1    
    24   12   28 1    
    25   13   24 am   BACKBONE|DICT|INTERRES
    26   13   25 2    
    27   14   15 1    
    28   14   16 1    
    29   14   35 1    
    30   14   36 1    
    31   15   24 1    
    32   15   37 1    
    33   15   38 1    
    34   16   17 1    
    35   16   39 1    
    36   17   40 1    
    37   17   41 1    
    38   17   42 1    
    39   18   21 1    
    40   18   43 1    
    41   18   44 1    
    42   18   45 1    
    43   19   22 1    
    44   19   46 1    
    45   19   47 1    
    46   19   48 1    
    47   20   23 1    
    48   20   49 1    
    49   20   50 1    
    50   20   51 1    
    51   21   26 1    
    52   21   52 1    
    53   21   53 1    
    54   22   27 1    
    55   22   54 1    
    56   22   55 1    
    57   23   28 1    
    58   23   56 1    
    59   23   57 1    
@<TRIPOS>SUBSTRUCTURE
     1 UNK         1 GROUP             0       ****    0 ROOT    
@<TRIPOS>MOLECULE
ZINC31785596_25
57   59    1
SMALL
USER_CHARGES


@<TRIPOS>ATOM
      1 C1         -4.4560   -8.6942   36.5301 C.ar      1 UNK        -0.1150 
      2 C2         -4.5326   -7.3656   36.9791 C.ar      1 UNK        -0.1150 
      3 C3         -4.9122   -9.7371   37.3548 C.ar      1 UNK        -0.1150 
      4 C4         -5.0915   -7.0804   38.2377 C.ar      1 UNK        -0.1150 
      5 C5         -8.2435   -6.5601   38.4525 C.ar      1 UNK        -0.1150 
      6 C6         -7.5769   -4.5136   39.5946 C.ar      1 UNK        -0.1150 
      7 C7         -7.5837   -5.9222   39.5261 C.ar      1 UNK        -0.1150 
      8 C8         -5.4651   -9.4641   38.6251 C.ar      1 UNK        -0.1150 
      9 C9         -5.6054   -8.1163   39.0606 C.ar      1 UNK        -0.0383 
     10 C10        -8.8420   -5.8054   37.4164 C.ar      1 UNK         0.0850 
     11 C11        -8.1836   -3.7372   38.5786 C.ar      1 UNK         0.0850 
     12 C12        -8.8021   -4.3953   37.4923 C.ar      1 UNK         0.0850 
     13 C13        -6.9521   -6.7244   40.6346 C.2       1 UNK         0.6150 
     14 C14        -6.6707  -10.2071   40.7467 C.3       1 UNK        -0.1200 
     15 C15        -6.1352   -8.8985   41.3419 C.3       1 UNK        -0.0500 
     16 C16        -5.8709  -10.6434   39.5078 C.3       1 UNK         0.0550 
     17 C17        -4.6361  -11.4643   39.9202 C.3       1 UNK        -0.1800 
     18 C18       -10.6364   -8.3874   36.9858 C.3       1 UNK        -0.1800 
     19 C19        -7.8652   -0.1681   39.4690 C.3       1 UNK        -0.1800 
     20 C20        -9.2726   -2.5217   34.3994 C.3       1 UNK        -0.1800 
     21 C21        -9.5026   -7.7715   36.1548 C.3       1 UNK         0.1400 
     22 C22        -7.6656   -1.6678   39.6920 C.3       1 UNK         0.1400 
     23 C23        -8.5107   -3.3477   35.4367 C.3       1 UNK         0.1400 
     24 N24        -6.2199   -7.8354   40.3318 N.am      1 UNK        -0.0317 
     25 O25        -7.1054   -6.3287   41.7920 O.2       1 UNK        -0.5000 
     26 O26        -9.4643   -6.3586   36.3141 O.3       1 UNK        -0.2850 
     27 O27        -8.2037   -2.3575   38.5747 O.3       1 UNK        -0.2850 
     28 O28        -9.3915   -3.6511   36.5037 O.3       1 UNK        -0.2850 
     29 H29        -4.0293   -8.9149   35.5621 H         1 UNK         0.1150 
     30 H30        -4.1642   -6.5623   36.3574 H         1 UNK         0.1150 
     31 H31        -4.8212  -10.7575   37.0117 H         1 UNK         0.1150 
     32 H32        -5.1264   -6.0478   38.5533 H         1 UNK         0.1150 
     33 H33        -8.2648   -7.6383   38.4366 H         1 UNK         0.1150 
     34 H34        -7.0955   -4.0496   40.4425 H         1 UNK         0.1150 
     35 H35        -6.6947  -10.9983   41.4968 H         1 UNK         0.0600 
     36 H36        -7.7096  -10.0440   40.4552 H         1 UNK         0.0600 
     37 H37        -6.6925   -8.6762   42.2539 H         1 UNK         0.0600 
     38 H38        -5.0939   -9.0101   41.6457 H         1 UNK         0.0600 
     39 H39        -6.5120  -11.2939   38.9106 H         1 UNK         0.0600 
     40 H40        -3.9296  -10.8597   40.4896 H         1 UNK         0.0600 
     41 H41        -4.1058  -11.8557   39.0520 H         1 UNK         0.0600 
     42 H42        -4.9159  -12.3187   40.5368 H         1 UNK         0.0600 
     43 H43       -10.5002   -8.2182   38.0532 H         1 UNK         0.0600 
     44 H44       -11.5967   -7.9543   36.7046 H         1 UNK         0.0600 
     45 H45       -10.6961   -9.4634   36.8228 H         1 UNK         0.0600 
     46 H46        -7.3624    0.1606   38.5595 H         1 UNK         0.0600 
     47 H47        -8.9242    0.0718   39.3710 H         1 UNK         0.0600 
     48 H48        -7.4650    0.4080   40.3032 H         1 UNK         0.0600 
     49 H49       -10.1285   -3.0769   34.0154 H         1 UNK         0.0600 
     50 H50        -9.6432   -1.5955   34.8387 H         1 UNK         0.0600 
     51 H51        -8.6316   -2.2640   33.5567 H         1 UNK         0.0600 
     52 H52        -9.6956   -7.9693   35.1002 H         1 UNK         0.0300 
     53 H53        -8.5380   -8.2358   36.3645 H         1 UNK         0.0300 
     54 H54        -8.1718   -1.9730   40.6094 H         1 UNK         0.0300 
     55 H55        -6.6016   -1.8851   39.7970 H         1 UNK         0.0300 
     56 H56        -7.6507   -2.7855   35.8048 H         1 UNK         0.0300 
     57 H57        -8.1358   -4.2659   34.9815 H         1 UNK         0.0300 
@<TRIPOS>BOND
     1    1    2 ar   
     2    1    3 ar   
     3    1   29 1    
     4    2    4 ar   
     5    2   30 1    
     6    3    8 ar   
     7    3   31 1    
     8    4    9 ar   
     9    4   32 1    
    10    5    7 ar   
    11    5   10 ar   
    12    5   33 1    
    13    6    7 ar   
    14    6   11 ar   
    15    6   34 1    
    16    7   13 1    
    17    8    9 ar   
    18    8   16 1    
    19    9   24 1    
    20   10   12 ar   
    21   10   26 1    
    22   11   12 ar   
    23   11   27 1    
    24   12   28 1    
    25   13   24 am   BACKBONE|DICT|INTERRES
    26   13   25 2    
    27   14   15 1    
    28   14   16 1    
    29   14   35 1    
    30   14   36 1    
    31   15   24 1    
    32   15   37 1    
    33   15   38 1    
    34   16   17 1    
    35   16   39 1    
    36   17   40 1    
    37   17   41 1    
    38   17   42 1    
    39   18   21 1    
    40   18   43 1    
    41   18   44 1    
    42   18   45 1    
    43   19   22 1    
    44   19   46 1    
    45   19   47 1    
    46   19   48 1    
    47   20   23 1    
    48   20   49 1    
    49   20   50 1    
    50   20   51 1    
    51   21   26 1    
    52   21   52 1    
    53   21   53 1    
    54   22   27 1    
    55   22   54 1    
    56   22   55 1    
    57   23   28 1    
    58   23   56 1    
    59   23   57 1    
@<TRIPOS>SUBSTRUCTURE
     1 UNK         1 GROUP             0       ****    0 ROOT    
@<TRIPOS>MOLECULE
ZINC31854365_87
42   44    1
SMALL
USER_CHARGES


@<TRIPOS>ATOM
      1 C1         -5.8431  -14.6963   35.7230 C.ar      1 UNK        -0.1150 
      2 C2         -5.8803  -15.1913   37.0399 C.ar      1 UNK        -0.1150 
      3 C3         -6.1167  -13.3379   35.4779 C.ar      1 UNK        -0.1150 
      4 C4         -6.1901  -14.3283   38.1099 C.ar      1 UNK        -0.1150 
      5 C5         -6.4263  -12.4769   36.5491 C.ar      1 UNK        -0.1150 
      6 C6         -9.2581   -4.9989   39.4149 C.ar      1 UNK        -0.1150 
      7 C7        -10.4217   -7.0844   38.9154 C.ar      1 UNK        -0.1150 
      8 C8         -6.6087  -12.2901   40.3446 C.2       1 UNK        -0.3376 
      9 C9         -6.4680  -12.9618   37.8769 C.ar      1 UNK         0.0000 
     10 C10        -9.5163   -6.3523   39.7157 C.ar      1 UNK         0.0631 
     11 C11        -9.8758   -4.3733   38.3046 C.ar      1 UNK         0.0850 
     12 C12       -11.0476   -6.4796   37.8008 C.ar      1 UNK         0.0850 
     13 C13       -10.7649   -5.1308   37.5110 C.ar      1 UNK         0.1500 
     14 C14        -6.7842  -12.0636   38.9982 C.2       1 UNK         0.2843 
     15 C15        -7.5725  -10.1003   39.8572 C.2       1 UNK         0.5009 
     16 C16        -8.8612   -6.9614   40.8910 C.2       1 UNK         0.1451 
     17 C17        -8.7473   -2.2872   38.7091 C.3       1 UNK         0.1100 
     18 C18       -12.2129   -8.4934   37.2048 C.3       1 UNK         0.1100 
     19 N19        -7.3413  -10.8001   38.7506 N.2       1 UNK        -0.4803 
     20 N20        -8.2933   -8.1195   40.9429 N.2       1 UNK        -0.2767 
     21 N21        -8.1258   -8.8293   39.8320 N.pl3     1 UNK        -0.5800 
     22 O22       -11.3824   -4.5730   36.4323 O.3       1 UNK        -0.5850 
     23 O23        -9.6619   -3.0582   37.9454 O.3       1 UNK        -0.2850 
     24 O24       -11.9332   -7.1222   36.9589 O.3       1 UNK        -0.2850 
     25 S25        -7.1231  -10.9476   41.3301 S.3       1 UNK         0.0010 
     26 H26        -5.6057  -15.3573   34.9016 H         1 UNK         0.1150 
     27 H27        -5.6723  -16.2345   37.2297 H         1 UNK         0.1150 
     28 H28        -6.0885  -12.9537   34.4685 H         1 UNK         0.1150 
     29 H29        -6.2192  -14.7286   39.1117 H         1 UNK         0.1150 
     30 H30        -6.6300  -11.4356   36.3453 H         1 UNK         0.1150 
     31 H31        -8.5717   -4.4563   40.0465 H         1 UNK         0.1150 
     32 H32       -10.6282   -8.1099   39.1827 H         1 UNK         0.1150 
     33 H33        -6.1988  -13.1651   40.8217 H         1 UNK         0.2317 
     34 H34        -8.8576   -6.3658   41.8047 H         1 UNK         0.0685 
     35 H35        -8.6827   -1.2851   38.2856 H         1 UNK         0.0300 
     36 H36        -7.7457   -2.7189   38.6873 H         1 UNK         0.0300 
     37 H37        -9.0775   -2.1867   39.7439 H         1 UNK         0.0300 
     38 H38       -12.9034   -8.8623   36.4463 H         1 UNK         0.0300 
     39 H39       -12.6865   -8.6351   38.1773 H         1 UNK         0.0300 
     40 H40       -11.3093   -9.1025   37.1506 H         1 UNK         0.0300 
     41 H41        -8.3123   -8.4457   38.9167 H         1 UNK         0.3800 
     42 H42       -11.9382   -5.2259   36.0320 H         1 UNK         0.4350 
@<TRIPOS>BOND
     1    1    2 ar   
     2    1    3 ar   
     3    1   26 1    
     4    2    4 ar   
     5    2   27 1    
     6    3    5 ar   
     7    3   28 1    
     8    4    9 ar   
     9    4   29 1    
    10    5    9 ar   
    11    5   30 1    
    12    6   10 ar   
    13    6   11 ar   
    14    6   31 1    
    15    7   10 ar   
    16    7   12 ar   
    17    7   32 1    
    18    8   14 2    
    19    8   25 1    
    20    8   33 1    
    21    9   14 1    
    22   10   16 1    
    23   11   13 ar   
    24   11   23 1    
    25   12   13 ar   
    26   12   24 1    
    27   13   22 1    
    28   14   19 1    
    29   15   19 2    
    30   15   21 1    
    31   15   25 1    
    32   16   20 2    
    33   16   34 1    
    34   17   23 1    
    35   17   35 1    
    36   17   36 1    
    37   17   37 1    
    38   18   24 1    
    39   18   38 1    
    40   18   39 1    
    41   18   40 1    
    42   20   21 1    
    43   21   41 1    
    44   22   42 1    
@<TRIPOS>SUBSTRUCTURE
     1 UNK         1 GROUP             0       ****    0 ROOT    
@<TRIPOS>MOLECULE
ZINC31854465_210
45   47    1
SMALL
USER_CHARGES


@<TRIPOS>ATOM
      1 C1         -5.9147  -14.0841   38.1434 C.ar      1 UNK        -0.1150 
      2 C2         -6.1920  -12.2365   36.5839 C.ar      1 UNK        -0.1150 
      3 C3         -5.6185  -14.9462   37.0686 C.ar      1 UNK        -0.1150 
      4 C4         -5.8948  -13.0976   35.5088 C.ar      1 UNK        -0.1150 
      5 C5        -10.0607   -6.8211   38.8431 C.ar      1 UNK        -0.1150 
      6 C6         -8.9658   -4.7550   39.5042 C.ar      1 UNK        -0.1150 
      7 C7         -6.3549  -12.0604   40.3858 C.2       1 UNK        -0.3376 
      8 C8         -6.2072  -12.7199   37.9137 C.ar      1 UNK         0.0000 
      9 C9         -9.2313   -6.1154   39.7384 C.ar      1 UNK         0.0631 
     10 C10       -10.6018   -6.1971   37.6923 C.ar      1 UNK         0.0850 
     11 C11        -9.4884   -4.1046   38.3616 C.ar      1 UNK         0.0850 
     12 C12       -10.2891   -4.8281   37.4457 C.ar      1 UNK         0.0850 
     13 C13        -5.6088  -14.4533   35.7511 C.ar      1 UNK         0.2000 
     14 C14        -6.5168  -11.8239   39.0394 C.2       1 UNK         0.2843 
     15 C15        -7.2917   -9.8577   39.9035 C.2       1 UNK         0.5009 
     16 C16        -8.6688   -6.7596   40.9426 C.2       1 UNK         0.1451 
     17 C17       -11.7605   -8.2278   37.0754 C.3       1 UNK         0.1100 
     18 C18        -8.4378   -2.0178   38.9539 C.3       1 UNK         0.1100 
     19 C19       -10.9316   -4.7727   35.1208 C.3       1 UNK         0.1100 
     20 N20        -7.0541  -10.5520   38.7945 N.2       1 UNK        -0.4803 
     21 N21        -8.0899   -7.9121   40.9997 N.2       1 UNK        -0.2767 
     22 N22        -7.8311   -8.5812   39.8811 N.pl3     1 UNK        -0.5800 
     23 O23       -11.4402   -6.8668   36.8221 O.3       1 UNK        -0.2850 
     24 O24        -9.2493   -2.7762   38.0701 O.3       1 UNK        -0.2850 
     25 O25       -10.7467   -4.1067   36.3606 O.3       1 UNK        -0.2850 
     26 S26        -6.8655  -10.7191   41.3750 S.3       1 UNK         0.0010 
     27 Br27       -5.2108  -15.6184   34.3014 Br        1 UNK        -0.2000 
     28 H28        -5.9226  -14.4843   39.1456 H         1 UNK         0.1150 
     29 H29        -6.4084  -11.1977   36.3805 H         1 UNK         0.1150 
     30 H30        -5.4000  -15.9880   37.2515 H         1 UNK         0.1150 
     31 H31        -5.8864  -12.7190   34.4973 H         1 UNK         0.1150 
     32 H32       -10.2826   -7.8513   39.0766 H         1 UNK         0.1150 
     33 H33        -8.3442   -4.2275   40.2111 H         1 UNK         0.1150 
     34 H34        -5.9613  -12.9423   40.8638 H         1 UNK         0.2317 
     35 H35        -8.7490   -6.1975   41.8738 H         1 UNK         0.0685 
     36 H36       -12.4158   -8.5941   36.2851 H         1 UNK         0.0300 
     37 H37       -12.2919   -8.3432   38.0210 H         1 UNK         0.0300 
     38 H38       -10.8692   -8.8568   37.0794 H         1 UNK         0.0300 
     39 H39        -8.3495   -0.9997   38.5749 H         1 UNK         0.0300 
     40 H40        -7.4306   -2.4307   39.0250 H         1 UNK         0.0300 
     41 H41        -8.8791   -1.9606   39.9498 H         1 UNK         0.0300 
     42 H42       -10.8453   -4.0474   34.3123 H         1 UNK         0.0300 
     43 H43       -11.9268   -5.2129   35.0552 H         1 UNK         0.0300 
     44 H44       -10.1792   -5.5440   34.9497 H         1 UNK         0.0300 
     45 H45        -7.9941   -8.1822   38.9678 H         1 UNK         0.3800 
@<TRIPOS>BOND
     1    1    3 ar   
     2    1    8 ar   
     3    1   28 1    
     4    2    4 ar   
     5    2    8 ar   
     6    2   29 1    
     7    3   13 ar   
     8    3   30 1    
     9    4   13 ar   
    10    4   31 1    
    11    5    9 ar   
    12    5   10 ar   
    13    5   32 1    
    14    6    9 ar   
    15    6   11 ar   
    16    6   33 1    
    17    7   14 2    
    18    7   26 1    
    19    7   34 1    
    20    8   14 1    
    21    9   16 1    
    22   10   12 ar   
    23   10   23 1    
    24   11   12 ar   
    25   11   24 1    
    26   12   25 1    
    27   13   27 1    
    28   14   20 1    
    29   15   20 2    
    30   15   22 1    
    31   15   26 1    
    32   16   21 2    
    33   16   35 1    
    34   17   23 1    
    35   17   36 1    
    36   17   37 1    
    37   17   38 1    
    38   18   24 1    
    39   18   39 1    
    40   18   40 1    
    41   18   41 1    
    42   19   25 1    
    43   19   42 1    
    44   19   43 1    
    45   19   44 1    
    46   21   22 1    
    47   22   45 1    
@<TRIPOS>SUBSTRUCTURE
     1 UNK         1 GROUP             0       ****    0 ROOT    
@<TRIPOS>MOLECULE
ZINC31904075_114
38   39    1
SMALL
USER_CHARGES


@<TRIPOS>ATOM
      1 C1         -6.6777  -13.5935   35.4349 C.ar      1 UNK        -0.1150 
      2 C2         -7.3315  -14.5077   36.2818 C.ar      1 UNK        -0.1150 
      3 C3         -6.6023  -12.2347   35.7936 C.ar      1 UNK        -0.1150 
      4 C4         -7.9101  -14.0628   37.4866 C.ar      1 UNK        -0.1150 
      5 C5         -7.1807  -11.7887   36.9985 C.ar      1 UNK        -0.1150 
      6 C6        -10.5236   -8.8505   38.5195 C.ar      1 UNK        -0.1150 
      7 C7         -9.6905   -6.7410   39.4151 C.ar      1 UNK        -0.1150 
      8 C8        -11.2835   -6.7409   37.5806 C.ar      1 UNK        -0.1150 
      9 C9         -7.8417  -12.7002   37.8585 C.ar      1 UNK        -0.1150 
     10 C10        -9.7061   -8.1541   39.4422 C.ar      1 UNK        -0.1150 
     11 C11       -11.3138   -8.1480   37.5785 C.ar      1 UNK         0.0850 
     12 C12       -10.4810   -6.0227   38.4867 C.ar      1 UNK         0.0850 
     13 C13        -8.8475   -8.8619   40.4394 C.2       1 UNK         0.5370 
     14 C14        -8.4722  -12.2623   39.1362 C.2       1 UNK         0.6250 
     15 C15       -12.1273  -10.1716   36.5646 C.3       1 UNK         0.1100 
     16 C16        -9.7135   -3.8950   39.2945 C.3       1 UNK         0.1100 
     17 C17        -8.9282  -10.3865   40.5223 C.3       1 UNK         0.2380 
     18 O18        -8.0885   -8.2712   41.2079 O.2       1 UNK        -0.4700 
     19 O19        -9.0804  -13.0185   39.8945 O.2       1 UNK        -0.4300 
     20 O20       -12.1244   -8.7530   36.6424 O.3       1 UNK        -0.2850 
     21 O21       -10.5217   -4.6480   38.4019 O.3       1 UNK        -0.2850 
     22 O22        -8.3322  -10.9521   39.3657 O.3       1 UNK        -0.3300 
     23 H23        -6.2335  -13.9343   34.5108 H         1 UNK         0.1150 
     24 H24        -7.3897  -15.5515   36.0083 H         1 UNK         0.1150 
     25 H25        -6.0999  -11.5327   35.1438 H         1 UNK         0.1150 
     26 H26        -8.4097  -14.7761   38.1278 H         1 UNK         0.1150 
     27 H27        -7.1088  -10.7397   37.2484 H         1 UNK         0.1150 
     28 H28       -10.5414   -9.9278   38.5275 H         1 UNK         0.1150 
     29 H29        -9.0610   -6.2198   40.1215 H         1 UNK         0.1150 
     30 H30       -11.8866   -6.1987   36.8672 H         1 UNK         0.1150 
     31 H31       -12.7868  -10.4855   35.7556 H         1 UNK         0.0300 
     32 H32       -12.5004  -10.6210   37.4857 H         1 UNK         0.0300 
     33 H33       -11.1321  -10.5626   36.3474 H         1 UNK         0.0300 
     34 H34        -9.8569   -2.8323   39.0992 H         1 UNK         0.0300 
     35 H35        -8.6542   -4.1157   39.1555 H         1 UNK         0.0300 
     36 H36        -9.9884   -4.0785   40.3342 H         1 UNK         0.0300 
     37 H37        -9.9723  -10.6879   40.6169 H         1 UNK         0.0300 
     38 H38        -8.4040  -10.7326   41.4140 H         1 UNK         0.0300 
@<TRIPOS>BOND
     1    1    2 ar   
     2    1    3 ar   
     3    1   23 1    
     4    2    4 ar   
     5    2   24 1    
     6    3    5 ar   
     7    3   25 1    
     8    4    9 ar   
     9    4   26 1    
    10    5    9 ar   
    11    5   27 1    
    12    6   10 ar   
    13    6   11 ar   
    14    6   28 1    
    15    7   10 ar   
    16    7   12 ar   
    17    7   29 1    
    18    8   11 ar   
    19    8   12 ar   
    20    8   30 1    
    21    9   14 1    
    22   10   13 1    
    23   11   20 1    
    24   12   21 1    
    25   13   17 1    
    26   13   18 2    
    27   14   19 2    
    28   14   22 1    
    29   15   20 1    
    30   15   31 1    
    31   15   32 1    
    32   15   33 1    
    33   16   21 1    
    34   16   34 1    
    35   16   35 1    
    36   16   36 1    
    37   17   22 1    
    38   17   37 1    
    39   17   38 1    
@<TRIPOS>SUBSTRUCTURE
     1 UNK         1 GROUP             0       ****    0 ROOT    
@<TRIPOS>MOLECULE
ZINC32007962_180
46   48    1
SMALL
USER_CHARGES


@<TRIPOS>ATOM
      1 C1        -14.3576  -18.0774   36.3749 C.ar      1 UNK        -0.1150 
      2 C2        -13.2372  -17.7125   35.5894 C.ar      1 UNK        -0.1150 
      3 C3        -14.2674  -18.0954   37.7844 C.ar      1 UNK        -0.1150 
      4 C4        -12.0151  -17.3578   36.2038 C.ar      1 UNK        -0.1150 
      5 C5        -13.7886  -13.5956   38.0859 C.ar      1 UNK        -0.1150 
      6 C6        -13.9167  -11.9306   39.8490 C.ar      1 UNK        -0.1150 
      7 C7        -13.4759  -13.1865   39.3977 C.ar      1 UNK        -0.1150 
      8 C8        -13.0376  -17.7457   38.3676 C.ar      1 UNK        -0.1150 
      9 C9        -11.9404  -17.3830   37.6066 C.ar      1 UNK         0.0850 
     10 C10       -14.4990  -12.7403   37.2081 C.ar      1 UNK         0.0850 
     11 C11       -14.6344  -11.0616   39.0078 C.ar      1 UNK         0.0850 
     12 C12       -14.8952  -11.4489   37.6603 C.ar      1 UNK         0.0850 
     13 C13       -12.7371  -14.0954   40.3309 C.2       1 UNK         0.6150 
     14 C14       -12.6775  -17.6995   39.8127 C.3       1 UNK        -0.0050 
     15 C15       -11.2062  -17.2016   39.7542 C.3       1 UNK         0.1700 
     16 C16       -14.5393  -14.4378   35.4926 C.3       1 UNK         0.1100 
     17 C17       -16.1229   -9.1593   39.0917 C.3       1 UNK         0.1100 
     18 C18       -14.9803  -10.3570   35.5368 C.3       1 UNK         0.1100 
     19 C19       -10.9739  -15.8433   40.4371 C.3       1 UNK         0.0800 
     20 N20       -11.7513  -14.8036   39.7733 N.am      1 UNK        -0.5000 
     21 O21       -13.0163  -14.1516   41.5258 O.2       1 UNK        -0.5000 
     22 O22       -10.8464  -17.0747   38.3642 O.3       1 UNK        -0.2850 
     23 O23       -14.8446  -13.1206   35.9259 O.3       1 UNK        -0.2850 
     24 O24       -14.9942   -9.8620   39.5892 O.3       1 UNK        -0.2850 
     25 O25       -15.5474  -10.5696   36.8227 O.3       1 UNK        -0.2850 
     26 H26       -15.2868  -18.3482   35.8937 H         1 UNK         0.1150 
     27 H27       -13.3155  -17.7071   34.5120 H         1 UNK         0.1150 
     28 H28       -15.1152  -18.3755   38.3930 H         1 UNK         0.1150 
     29 H29       -11.1549  -17.0810   35.6121 H         1 UNK         0.1150 
     30 H30       -13.4874  -14.5846   37.7751 H         1 UNK         0.1150 
     31 H31       -13.7077  -11.6268   40.8654 H         1 UNK         0.1150 
     32 H32       -13.3392  -17.0295   40.3621 H         1 UNK         0.0600 
     33 H33       -12.7476  -18.6962   40.2488 H         1 UNK         0.0600 
     34 H34       -10.5528  -17.9481   40.2076 H         1 UNK         0.0300 
     35 H35       -14.9115  -14.5783   34.4781 H         1 UNK         0.0300 
     36 H36       -15.0198  -15.1859   36.1248 H         1 UNK         0.0300 
     37 H37       -13.4630  -14.6133   35.4742 H         1 UNK         0.0300 
     38 H38       -16.9498   -9.8294   38.8512 H         1 UNK         0.0300 
     39 H39       -15.8649   -8.5654   38.2149 H         1 UNK         0.0300 
     40 H40       -16.4762   -8.4681   39.8565 H         1 UNK         0.0300 
     41 H41       -15.1493   -9.3224   35.2393 H         1 UNK         0.0300 
     42 H42       -15.4579  -10.9918   34.7902 H         1 UNK         0.0300 
     43 H43       -13.9032  -10.5328   35.5190 H         1 UNK         0.0300 
     44 H44        -9.9192  -15.5748   40.3760 H         1 UNK         0.0600 
     45 H45       -11.2125  -15.9140   41.5000 H         1 UNK         0.0600 
     46 H46       -11.5881  -14.6807   38.7859 H         1 UNK         0.3000 
@<TRIPOS>BOND
     1    1    2 ar   
     2    1    3 ar   
     3    1   26 1    
     4    2    4 ar   
     5    2   27 1    
     6    3    8 ar   
     7    3   28 1    
     8    4    9 ar   
     9    4   29 1    
    10    5    7 ar   
    11    5   10 ar   
    12    5   30 1    
    13    6    7 ar   
    14    6   11 ar   
    15    6   31 1    
    16    7   13 1    
    17    8    9 ar   
    18    8   14 1    
    19    9   22 1    
    20   10   12 ar   
    21   10   23 1    
    22   11   12 ar   
    23   11   24 1    
    24   12   25 1    
    25   13   20 am   BACKBONE|DICT|INTERRES
    26   13   21 2    
    27   14   15 1    
    28   14   32 1    
    29   14   33 1    
    30   15   19 1    
    31   15   22 1    
    32   15   34 1    
    33   16   23 1    
    34   16   35 1    
    35   16   36 1    
    36   16   37 1    
    37   17   24 1    
    38   17   38 1    
    39   17   39 1    
    40   17   40 1    
    41   18   25 1    
    42   18   41 1    
    43   18   42 1    
    44   18   43 1    
    45   19   20 1    
    46   19   44 1    
    47   19   45 1    
    48   20   46 1    
@<TRIPOS>SUBSTRUCTURE
     1 UNK         1 GROUP             0       ****    0 ROOT    
@<TRIPOS>MOLECULE
ZINC32194249_137
44   45    1
SMALL
USER_CHARGES


@<TRIPOS>ATOM
      1 C1        -10.6433   -8.1963   39.2893 C.ar      1 UNK        -0.1150 
      2 C2         -8.6721  -14.1406   35.1462 C.ar      1 UNK        -0.1150 
      3 C3         -8.8967  -13.4905   36.3739 C.ar      1 UNK        -0.1150 
      4 C4        -11.1002   -7.4106   38.2155 C.ar      1 UNK        -0.1150 
      5 C5        -11.4492  -10.1946   38.1658 C.ar      1 UNK        -0.1150 
      6 C6         -7.9859  -16.1486   36.3380 C.ar      1 UNK        -0.1150 
      7 C7        -10.8033   -9.5973   39.2731 C.ar      1 UNK        -0.1150 
      8 C8         -8.2163  -15.4726   35.1245 C.ar      1 UNK        -0.1150 
      9 C9         -8.2083  -15.5019   37.5722 C.ar      1 UNK        -0.1150 
     10 C10        -8.6657  -14.1621   37.5974 C.ar      1 UNK         0.2000 
     11 C11       -11.7302   -8.0123   37.0985 C.ar      1 UNK         0.0850 
     12 C12       -11.9039   -9.4150   37.0735 C.ar      1 UNK         0.0850 
     13 C13        -9.8546  -11.7982   40.2199 C.2       1 UNK        -0.1150 
     14 C14        -9.3052  -12.2427   39.0729 C.2       1 UNK        -0.0970 
     15 C15       -10.2968  -10.4004   40.4291 C.2       1 UNK         0.5850 
     16 C16        -7.9723  -16.1805   33.8078 C.3       1 UNK        -0.0650 
     17 C17        -7.9490  -16.2616   38.8621 C.3       1 UNK        -0.0650 
     18 C18       -12.0699   -5.8892   36.0203 C.3       1 UNK         0.1100 
     19 C19       -12.6715  -11.3597   35.8786 C.3       1 UNK         0.1100 
     20 N20        -8.8929  -13.5468   38.8381 N.pl3     1 UNK        -0.5717 
     21 O21       -10.2234   -9.9043   41.5524 O.2       1 UNK        -0.4700 
     22 O22       -12.1960   -7.3028   36.0107 O.3       1 UNK        -0.2850 
     23 O23       -12.5218   -9.9504   35.9617 O.3       1 UNK        -0.2850 
     24 H24       -10.1636   -7.7170   40.1319 H         1 UNK         0.1150 
     25 H25        -8.8539  -13.6084   34.2238 H         1 UNK         0.1150 
     26 H26        -9.2546  -12.4738   36.3488 H         1 UNK         0.1150 
     27 H27       -10.9521   -6.3438   38.2739 H         1 UNK         0.1150 
     28 H28       -11.5995  -11.2625   38.1710 H         1 UNK         0.1150 
     29 H29        -7.6361  -17.1707   36.3188 H         1 UNK         0.1150 
     30 H30        -9.9822  -12.4664   41.0577 H         1 UNK         0.1150 
     31 H31        -9.1388  -11.5693   38.2448 H         1 UNK         0.1150 
     32 H32        -6.9135  -16.4163   33.6967 H         1 UNK         0.0600 
     33 H33        -8.5384  -17.1114   33.7665 H         1 UNK         0.0600 
     34 H34        -8.2736  -15.5639   32.9605 H         1 UNK         0.0600 
     35 H35        -7.2097  -15.7381   39.4690 H         1 UNK         0.0600 
     36 H36        -8.8701  -16.3592   39.4370 H         1 UNK         0.0600 
     37 H37        -7.5690  -17.2641   38.6652 H         1 UNK         0.0600 
     38 H38       -12.4940   -5.4853   35.1013 H         1 UNK         0.0300 
     39 H39       -11.0242   -5.5822   36.0631 H         1 UNK         0.0300 
     40 H40       -12.6134   -5.4467   36.8561 H         1 UNK         0.0300 
     41 H41       -13.1501  -11.6140   34.9329 H         1 UNK         0.0300 
     42 H42       -13.3046  -11.7420   36.6804 H         1 UNK         0.0300 
     43 H43       -11.7060  -11.8669   35.9047 H         1 UNK         0.0300 
     44 H44        -8.8199  -14.1675   39.6309 H         1 UNK         0.3537 
@<TRIPOS>BOND
     1    1    4 ar   
     2    1    7 ar   
     3    1   24 1    
     4    2    3 ar   
     5    2    8 ar   
     6    2   25 1    
     7    3   10 ar   
     8    3   26 1    
     9    4   11 ar   
    10    4   27 1    
    11    5    7 ar   
    12    5   12 ar   
    13    5   28 1    
    14    6    8 ar   
    15    6    9 ar   
    16    6   29 1    
    17    7   15 1    
    18    8   16 1    
    19    9   10 ar   
    20    9   17 1    
    21   10   20 1    
    22   11   12 ar   
    23   11   22 1    
    24   12   23 1    
    25   13   14 2    
    26   13   15 1    
    27   13   30 1    
    28   14   20 1    
    29   14   31 1    
    30   15   21 2    
    31   16   32 1    
    32   16   33 1    
    33   16   34 1    
    34   17   35 1    
    35   17   36 1    
    36   17   37 1    
    37   18   22 1    
    38   18   38 1    
    39   18   39 1    
    40   18   40 1    
    41   19   23 1    
    42   19   41 1    
    43   19   42 1    
    44   19   43 1    
    45   20   44 1    
@<TRIPOS>SUBSTRUCTURE
     1 UNK         1 GROUP             0       ****    0 ROOT    
@<TRIPOS>MOLECULE
ZINC32735957_10
46   48    1
SMALL
USER_CHARGES


@<TRIPOS>ATOM
      1 C1         -4.9280   -7.9415   36.8641 C.ar      1 UNK        -0.1150 
      2 C2         -5.2954   -7.4748   38.1414 C.ar      1 UNK        -0.1150 
      3 C3         -8.3999   -6.6629   38.6800 C.ar      1 UNK        -0.1150 
      4 C4         -7.3561   -4.6205   39.5034 C.ar      1 UNK        -0.1150 
      5 C5         -5.5496  -10.2072   37.5054 C.ar      1 UNK        -0.1150 
      6 C6         -7.5413   -6.0151   39.5946 C.ar      1 UNK        -0.1150 
      7 C7         -5.0623   -9.3076   36.5348 C.ar      1 UNK         0.1500 
      8 C8         -5.8203   -8.3695   39.1059 C.ar      1 UNK        -0.0383 
      9 C9         -5.9083   -9.7451   38.7871 C.ar      1 UNK         0.0850 
     10 C10        -9.0206   -5.9390   37.6356 C.ar      1 UNK         0.0850 
     11 C11        -7.9758   -3.8732   38.4730 C.ar      1 UNK         0.0850 
     12 C12        -8.7924   -4.5487   37.5345 C.ar      1 UNK         0.0850 
     13 C13        -6.4292  -10.3697   41.0675 C.2       1 UNK         0.5000 
     14 C14        -6.8728   -6.7842   40.7026 C.2       1 UNK         0.6150 
     15 C15        -6.0970   -8.9384   41.5057 C.3       1 UNK        -0.0500 
     16 C16       -10.0856   -7.9118   36.7607 C.3       1 UNK         0.1100 
     17 C17        -7.1001   -1.7960   39.3171 C.3       1 UNK         0.1100 
     18 C18        -8.5329   -3.4816   35.4719 C.3       1 UNK         0.1100 
     19 C19        -4.6767   -9.8313   35.1593 C.3       1 UNK         0.4500 
     20 N20        -6.3541  -10.6630   39.7645 N.am      1 UNK        -0.3850 
     21 N21        -6.2443   -7.9547   40.4146 N.am      1 UNK        -0.0317 
     22 O22        -6.7469  -11.2169   41.8936 O.2       1 UNK        -0.5000 
     23 O23        -6.8880   -6.3054   41.8363 O.2       1 UNK        -0.5000 
     24 O24        -9.8377   -6.5162   36.6856 O.3       1 UNK        -0.2850 
     25 O25        -7.8317   -2.5082   38.3304 O.3       1 UNK        -0.2850 
     26 O26        -9.4081   -3.8573   36.5223 O.3       1 UNK        -0.2850 
     27 F27        -4.2963   -8.8490   34.3420 F         1 UNK        -0.2000 
     28 F28        -3.6726  -10.6978   35.2846 F         1 UNK        -0.2000 
     29 F29        -5.7205  -10.4579   34.6176 F         1 UNK        -0.2000 
     30 H30        -4.5422   -7.2449   36.1335 H         1 UNK         0.1150 
     31 H31        -5.1757   -6.4235   38.3623 H         1 UNK         0.1150 
     32 H32        -8.5605   -7.7242   38.7893 H         1 UNK         0.1150 
     33 H33        -6.7276   -4.1439   40.2411 H         1 UNK         0.1150 
     34 H34        -5.6277  -11.2546   37.2514 H         1 UNK         0.1150 
     35 H35        -6.7325   -8.7126   42.3648 H         1 UNK         0.0600 
     36 H36        -5.0687   -8.9130   41.8665 H         1 UNK         0.0600 
     37 H37       -10.7457   -8.2024   35.9435 H         1 UNK         0.0300 
     38 H38       -10.5813   -8.1790   37.6949 H         1 UNK         0.0300 
     39 H39        -9.1642   -8.4872   36.6607 H         1 UNK         0.0300 
     40 H40        -7.1230   -0.7322   39.0812 H         1 UNK         0.0300 
     41 H41        -6.0545   -2.1056   39.3400 H         1 UNK         0.0300 
     42 H42        -7.5381   -1.9222   40.3083 H         1 UNK         0.0300 
     43 H43        -9.1125   -3.0559   34.6531 H         1 UNK         0.0300 
     44 H44        -7.9916   -4.3455   35.0833 H         1 UNK         0.0300 
     45 H45        -7.8099   -2.7314   35.7922 H         1 UNK         0.0300 
     46 H46        -6.5382  -11.6192   39.5001 H         1 UNK         0.3000 
@<TRIPOS>BOND
     1    1    2 ar   
     2    1    7 ar   
     3    1   30 1    
     4    2    8 ar   
     5    2   31 1    
     6    3    6 ar   
     7    3   10 ar   
     8    3   32 1    
     9    4    6 ar   
    10    4   11 ar   
    11    4   33 1    
    12    5    7 ar   
    13    5    9 ar   
    14    5   34 1    
    15    6   14 1    
    16    7   19 1    
    17    8    9 ar   
    18    8   21 1    
    19    9   20 1    
    20   10   12 ar   
    21   10   24 1    
    22   11   12 ar   
    23   11   25 1    
    24   12   26 1    
    25   13   15 1    
    26   13   20 am   BACKBONE|DICT|INTERRES
    27   13   22 2    
    28   14   21 am   BACKBONE|DICT|INTERRES
    29   14   23 2    
    30   15   21 1    
    31   15   35 1    
    32   15   36 1    
    33   16   24 1    
    34   16   37 1    
    35   16   38 1    
    36   16   39 1    
    37   17   25 1    
    38   17   40 1    
    39   17   41 1    
    40   17   42 1    
    41   18   26 1    
    42   18   43 1    
    43   18   44 1    
    44   18   45 1    
    45   19   27 1    
    46   19   28 1    
    47   19   29 1    
    48   20   46 1    
@<TRIPOS>SUBSTRUCTURE
     1 UNK         1 GROUP             0       ****    0 ROOT    
@<TRIPOS>MOLECULE
ZINC32796383_132
54   56    1
SMALL
USER_CHARGES


@<TRIPOS>ATOM
      1 C1         -8.8739   -5.8653   38.4660 C.ar      1 UNK        -0.1150 
      2 C2         -7.3003   -4.2608   39.3825 C.ar      1 UNK        -0.1150 
      3 C3         -7.7683   -5.5920   39.3003 C.ar      1 UNK        -0.0383 
      4 C4         -9.5047   -4.8368   37.7271 C.ar      1 UNK         0.0850 
      5 C5         -7.9161   -3.2084   38.6600 C.ar      1 UNK         0.0850 
      6 C6         -9.0160   -3.5129   37.8083 C.ar      1 UNK         0.0850 
      7 C7         -6.4598   -6.5851   41.1798 C.2       1 UNK         0.5000 
      8 C8         -4.9281   -9.1337   39.5466 C.2       1 UNK         0.5100 
      9 C9         -5.9097   -7.9353   41.6017 C.3       1 UNK        -0.1200 
     10 C10        -3.3196  -11.2118   34.9142 C.3       1 UNK        -0.1200 
     11 C11        -3.4354  -12.2239   36.0664 C.3       1 UNK        -0.1200 
     12 C12        -3.0138   -9.8003   35.4419 C.3       1 UNK        -0.1200 
     13 C13        -4.4765  -11.7730   37.1045 C.3       1 UNK        -0.1200 
     14 C14        -4.0560   -9.3539   36.4802 C.3       1 UNK        -0.1200 
     15 C15        -7.2342   -8.0500   39.5727 C.3       1 UNK        -0.0500 
     16 C16        -6.1812   -8.8290   40.3807 C.3       1 UNK        -0.0600 
     17 C17        -4.1562  -10.3662   37.6386 C.3       1 UNK         0.2200 
     18 C18       -11.1507   -6.3532   36.8289 C.3       1 UNK         0.1100 
     19 C19        -6.4749   -1.5735   39.7057 C.3       1 UNK         0.1100 
     20 C20        -8.9640   -1.5005   36.4838 C.3       1 UNK         0.1100 
     21 N21        -7.1337   -6.6623   40.0142 N.am      1 UNK        -0.0317 
     22 O22        -6.2938   -5.5841   41.8744 O.2       1 UNK        -0.5000 
     23 O23        -3.8343   -8.6237   39.7849 O.2       1 UNK        -0.4300 
     24 O24       -10.5882   -5.0521   36.8980 O.3       1 UNK        -0.2850 
     25 O25        -7.4944   -1.8970   38.7703 O.3       1 UNK        -0.2850 
     26 O26        -9.6933   -2.5806   37.0468 O.3       1 UNK        -0.2850 
     27 O27        -5.1878   -9.9834   38.5382 O.3       1 UNK        -0.3300 
     28 H28        -9.2424   -6.8753   38.4003 H         1 UNK         0.1150 
     29 H29        -6.4476   -4.0534   40.0078 H         1 UNK         0.1150 
     30 H30        -4.8609   -7.8520   41.8882 H         1 UNK         0.0600 
     31 H31        -6.4634   -8.2856   42.4721 H         1 UNK         0.0600 
     32 H32        -2.5391  -11.5259   34.2196 H         1 UNK         0.0600 
     33 H33        -4.2494  -11.1966   34.3430 H         1 UNK         0.0600 
     34 H34        -3.7022  -13.2060   35.6740 H         1 UNK         0.0600 
     35 H35        -2.4644  -12.3392   36.5507 H         1 UNK         0.0600 
     36 H36        -2.0208   -9.7853   35.8942 H         1 UNK         0.0600 
     37 H37        -2.9853   -9.0904   34.6145 H         1 UNK         0.0600 
     38 H38        -5.4689  -11.7785   36.6517 H         1 UNK         0.0600 
     39 H39        -4.5084  -12.4850   37.9299 H         1 UNK         0.0600 
     40 H40        -3.7888   -8.3689   36.8652 H         1 UNK         0.0600 
     41 H41        -5.0290   -9.2450   35.9989 H         1 UNK         0.0600 
     42 H42        -7.0817   -8.1234   38.4940 H         1 UNK         0.0600 
     43 H43        -8.2310   -8.4330   39.7950 H         1 UNK         0.0600 
     44 H44        -6.5913   -9.7865   40.7021 H         1 UNK         0.0600 
     45 H45        -3.1994  -10.4114   38.1628 H         1 UNK         0.0300 
     46 H46       -12.0126   -6.3355   36.1620 H         1 UNK         0.0300 
     47 H47       -11.4983   -6.6901   37.8064 H         1 UNK         0.0300 
     48 H48       -10.4383   -7.0748   36.4268 H         1 UNK         0.0300 
     49 H49        -6.3108   -0.4961   39.6978 H         1 UNK         0.0300 
     50 H50        -5.5287   -2.0500   39.4460 H         1 UNK         0.0300 
     51 H51        -6.7585   -1.8550   40.7210 H         1 UNK         0.0300 
     52 H52        -9.4793   -1.1519   35.5892 H         1 UNK         0.0300 
     53 H53        -7.9553   -1.7930   36.1876 H         1 UNK         0.0300 
     54 H54        -8.9114   -0.6587   37.1749 H         1 UNK         0.0300 
@<TRIPOS>BOND
     1    1    3 ar   
     2    1    4 ar   
     3    1   28 1    
     4    2    3 ar   
     5    2    5 ar   
     6    2   29 1    
     7    3   21 1    
     8    4    6 ar   
     9    4   24 1    
    10    5    6 ar   
    11    5   25 1    
    12    6   26 1    
    13    7    9 1    
    14    7   21 am   BACKBONE|DICT|INTERRES
    15    7   22 2    
    16    8   16 1    
    17    8   23 2    
    18    8   27 1    
    19    9   16 1    
    20    9   30 1    
    21    9   31 1    
    22   10   11 1    
    23   10   12 1    
    24   10   32 1    
    25   10   33 1    
    26   11   13 1    
    27   11   34 1    
    28   11   35 1    
    29   12   14 1    
    30   12   36 1    
    31   12   37 1    
    32   13   17 1    
    33   13   38 1    
    34   13   39 1    
    35   14   17 1    
    36   14   40 1    
    37   14   41 1    
    38   15   16 1    
    39   15   21 1    
    40   15   42 1    
    41   15   43 1    
    42   16   44 1    
    43   17   27 1    
    44   17   45 1    
    45   18   24 1    
    46   18   46 1    
    47   18   47 1    
    48   18   48 1    
    49   19   25 1    
    50   19   49 1    
    51   19   50 1    
    52   19   51 1    
    53   20   26 1    
    54   20   52 1    
    55   20   53 1    
    56   20   54 1    
@<TRIPOS>SUBSTRUCTURE
     1 UNK         1 GROUP             0       ****    0 ROOT    
@<TRIPOS>MOLECULE
ZINC32796426_76
48   50    1
SMALL
USER_CHARGES


@<TRIPOS>ATOM
      1 C1         -3.1696  -10.4202   35.2304 C.ar      1 UNK        -0.1150 
      2 C2         -4.1597   -9.9689   36.1234 C.ar      1 UNK        -0.1150 
      3 C3         -2.3988  -11.5535   35.5524 C.ar      1 UNK        -0.1150 
      4 C4         -8.8461   -5.8037   38.2881 C.ar      1 UNK        -0.1150 
      5 C5         -7.1893   -4.3053   39.2356 C.ar      1 UNK        -0.1150 
      6 C6         -7.7133   -5.6120   39.1083 C.ar      1 UNK        -0.0383 
      7 C7         -4.3729  -10.6401   37.3466 C.ar      1 UNK         0.1350 
      8 C8         -9.4486   -4.7189   37.6083 C.ar      1 UNK         0.0850 
      9 C9         -7.7788   -3.1970   38.5776 C.ar      1 UNK         0.0850 
     10 C10        -8.9080   -3.4192   37.7380 C.ar      1 UNK         0.0850 
     11 C11        -2.6187  -12.2416   36.7618 C.ar      1 UNK         0.1800 
     12 C12        -3.6120  -11.7908   37.6611 C.ar      1 UNK         0.1800 
     13 C13        -6.4020   -6.7335   40.9125 C.2       1 UNK         0.5000 
     14 C14        -5.0483   -9.3057   39.1504 C.2       1 UNK         0.5100 
     15 C15        -5.9007   -8.1210   41.2683 C.3       1 UNK        -0.1200 
     16 C16        -7.2889   -8.1017   39.2773 C.3       1 UNK        -0.0500 
     17 C17        -6.2578   -8.9597   40.0309 C.3       1 UNK        -0.0600 
     18 C18       -11.1648   -6.1295   36.6684 C.3       1 UNK         0.1100 
     19 C19        -6.2620   -1.6697   39.6794 C.3       1 UNK         0.1100 
     20 C20        -8.8372   -1.3145   36.5545 C.3       1 UNK         0.1100 
     21 N21        -7.1098   -6.7367   39.7642 N.am      1 UNK        -0.0317 
     22 O22        -6.1732   -5.7685   41.6389 O.2       1 UNK        -0.5000 
     23 O23        -3.9451   -8.7834   39.3094 O.2       1 UNK        -0.4300 
     24 O24        -5.3596  -10.2024   38.1948 O.3       1 UNK        -0.2150 
     25 O25       -10.5555   -4.8541   36.7931 O.3       1 UNK        -0.2850 
     26 O26        -7.3018   -1.9104   38.7412 O.3       1 UNK        -0.2850 
     27 O27        -9.5694   -2.4324   37.0321 O.3       1 UNK        -0.2850 
     28 Cl28       -1.6645  -13.6386   37.1138 Cl        1 UNK        -0.1800 
     29 Cl29       -3.9085  -12.6427   39.1391 Cl        1 UNK        -0.1800 
     30 H30        -3.0009   -9.8978   34.2994 H         1 UNK         0.1150 
     31 H31        -4.7506   -9.0991   35.8747 H         1 UNK         0.1150 
     32 H32        -1.6379  -11.9023   34.8692 H         1 UNK         0.1150 
     33 H33        -9.2587   -6.7936   38.1875 H         1 UNK         0.1150 
     34 H34        -6.3138   -4.1596   39.8463 H         1 UNK         0.1150 
     35 H35        -4.8389   -8.0961   41.5154 H         1 UNK         0.0600 
     36 H36        -6.4368   -8.4754   42.1484 H         1 UNK         0.0600 
     37 H37        -7.1645   -8.1444   38.1935 H         1 UNK         0.0600 
     38 H38        -8.2981   -8.4428   39.5112 H         1 UNK         0.0600 
     39 H39        -6.7105   -9.9026   40.3388 H         1 UNK         0.0600 
     40 H40       -12.0339   -6.0482   36.0159 H         1 UNK         0.0300 
     41 H41       -11.5116   -6.5021   37.6330 H         1 UNK         0.0300 
     42 H42       -10.4841   -6.8543   36.2202 H         1 UNK         0.0300 
     43 H43        -6.0697   -0.5982   39.7334 H         1 UNK         0.0300 
     44 H44        -5.3328   -2.1544   39.3774 H         1 UNK         0.0300 
     45 H45        -6.5383   -2.0034   40.6808 H         1 UNK         0.0300 
     46 H46        -9.3623   -0.8852   35.7016 H         1 UNK         0.0300 
     47 H47        -7.8365   -1.5897   36.2177 H         1 UNK         0.0300 
     48 H48        -8.7664   -0.5363   37.3146 H         1 UNK         0.0300 
@<TRIPOS>BOND
     1    1    2 ar   
     2    1    3 ar   
     3    1   30 1    
     4    2    7 ar   
     5    2   31 1    
     6    3   11 ar   
     7    3   32 1    
     8    4    6 ar   
     9    4    8 ar   
    10    4   33 1    
    11    5    6 ar   
    12    5    9 ar   
    13    5   34 1    
    14    6   21 1    
    15    7   12 ar   
    16    7   24 1    
    17    8   10 ar   
    18    8   25 1    
    19    9   10 ar   
    20    9   26 1    
    21   10   27 1    
    22   11   12 ar   
    23   11   28 1    
    24   12   29 1    
    25   13   15 1    
    26   13   21 am   BACKBONE|DICT|INTERRES
    27   13   22 2    
    28   14   17 1    
    29   14   23 2    
    30   14   24 1    
    31   15   17 1    
    32   15   35 1    
    33   15   36 1    
    34   16   17 1    
    35   16   21 1    
    36   16   37 1    
    37   16   38 1    
    38   17   39 1    
    39   18   25 1    
    40   18   40 1    
    41   18   41 1    
    42   18   42 1    
    43   19   26 1    
    44   19   43 1    
    45   19   44 1    
    46   19   45 1    
    47   20   27 1    
    48   20   46 1    
    49   20   47 1    
    50   20   48 1    
@<TRIPOS>SUBSTRUCTURE
     1 UNK         1 GROUP             0       ****    0 ROOT    
@<TRIPOS>MOLECULE
ZINC33169509_54
42   44    1
SMALL
USER_CHARGES


@<TRIPOS>ATOM
      1 C1         -3.1036   -9.7274   37.6528 C.2       1 UNK        -0.4550 
      2 C2         -5.3010   -7.9044   40.2458 C.2       1 UNK        -0.0738 
      3 C3         -7.5527   -5.4214   39.2633 C.ar      1 UNK        -0.1150 
      4 C4         -9.9247   -5.9166   39.1875 C.ar      1 UNK        -0.1150 
      5 C5         -1.9908   -9.0100   37.1362 C.2       1 UNK         0.4050 
      6 C6         -5.7470   -9.9911   39.3504 C.2       1 UNK        -0.3255 
      7 C7         -4.8785   -8.9248   39.3379 C.2       1 UNK         0.0473 
      8 C8         -8.7054   -5.9371   39.8852 C.ar      1 UNK         0.1750 
      9 C9         -7.6030   -4.9011   37.9472 C.ar      1 UNK         0.0850 
     10 C10       -10.0156   -5.4050   37.8795 C.ar      1 UNK         0.0850 
     11 C11        -8.8496   -4.8628   37.2603 C.ar      1 UNK         0.0850 
     12 C12        -3.6903   -8.8335   38.5022 C.2       1 UNK         0.3480 
     13 C13        -6.4705   -8.1921   40.8956 C.2       1 UNK        -0.0562 
     14 C14        -5.2056   -4.5970   37.9037 C.3       1 UNK         0.1100 
     15 C15       -11.4678   -5.3135   35.9341 C.3       1 UNK         0.1100 
     16 C16        -8.3885   -3.0275   35.8073 C.3       1 UNK         0.1100 
     17 N17        -1.9176   -7.7857   37.6281 N.2       1 UNK        -0.4130 
     18 N18        -8.6671   -6.4786   41.1748 N.pl3     1 UNK        -0.5856 
     19 O19        -6.4470   -5.9995   42.3468 O.2       1 UNK        -0.4680 
     20 O20        -7.9185   -7.9755   43.0872 O.2       1 UNK        -0.4680 
     21 O21        -3.0003   -7.6634   38.5056 O.3       1 UNK        -0.1220 
     22 O22        -6.4779   -4.4424   37.2888 O.3       1 UNK        -0.2850 
     23 O23       -11.2837   -5.4702   37.3327 O.3       1 UNK        -0.2850 
     24 O24        -8.9366   -4.3266   35.9944 O.3       1 UNK        -0.2850 
     25 S25        -7.0884   -9.7518   40.4424 S.3       1 UNK         0.0328 
     26 S26        -7.3299   -7.1333   42.0375 S.o2      1 UNK         0.9819 
     27 H27        -3.4161  -10.7346   37.4320 H         1 UNK         0.1840 
     28 H28        -4.7478   -6.9866   40.3839 H         1 UNK         0.1211 
     29 H29        -6.6270   -5.4251   39.8145 H         1 UNK         0.1150 
     30 H30       -10.8193   -6.3107   39.6465 H         1 UNK         0.1150 
     31 H31        -1.2446   -9.3345   36.4254 H         1 UNK         0.0530 
     32 H32        -5.6839  -10.9012   38.7725 H         1 UNK         0.2618 
     33 H33        -4.4325   -4.2375   37.2248 H         1 UNK         0.0300 
     34 H34        -4.9892   -5.6442   38.1189 H         1 UNK         0.0300 
     35 H35        -5.1321   -4.0134   38.8225 H         1 UNK         0.0300 
     36 H36       -12.4770   -5.6304   35.6713 H         1 UNK         0.0300 
     37 H37       -10.7747   -5.9306   35.3608 H         1 UNK         0.0300 
     38 H38       -11.3697   -4.2697   35.6345 H         1 UNK         0.0300 
     39 H39        -9.0015   -2.4807   35.0912 H         1 UNK         0.0300 
     40 H40        -7.3809   -3.0856   35.3953 H         1 UNK         0.0300 
     41 H41        -8.3624   -2.4445   36.7298 H         1 UNK         0.0300 
     42 H42        -9.5490   -6.7271   41.5916 H         1 UNK         0.3572 
@<TRIPOS>BOND
     1    1    5 1    
     2    1   12 2    
     3    1   27 1    
     4    2    7 1    
     5    2   13 2    
     6    2   28 1    
     7    3    8 ar   
     8    3    9 ar   
     9    3   29 1    
    10    4    8 ar   
    11    4   10 ar   
    12    4   30 1    
    13    5   17 2    
    14    5   31 1    
    15    6    7 2    
    16    6   25 1    
    17    6   32 1    
    18    7   12 1    
    19    8   18 1    
    20    9   11 ar   
    21    9   22 1    
    22   10   11 ar   
    23   10   23 1    
    24   11   24 1    
    25   12   21 1    
    26   13   25 1    
    27   13   26 1    
    28   14   22 1    
    29   14   33 1    
    30   14   34 1    
    31   14   35 1    
    32   15   23 1    
    33   15   36 1    
    34   15   37 1    
    35   15   38 1    
    36   16   24 1    
    37   16   39 1    
    38   16   40 1    
    39   16   41 1    
    40   17   21 1    
    41   18   26 1    
    42   18   42 1    
    43   19   26 2    
    44   20   26 2    
@<TRIPOS>SUBSTRUCTURE
     1 UNK         1 GROUP             0       ****    0 ROOT    
@<TRIPOS>MOLECULE
ZINC33169509_54
42   44    1
SMALL
USER_CHARGES


@<TRIPOS>ATOM
      1 C1         -3.1036   -9.7274   37.6528 C.2       1 UNK        -0.4550 
      2 C2         -5.3010   -7.9044   40.2458 C.2       1 UNK        -0.0738 
      3 C3         -7.5527   -5.4214   39.2633 C.ar      1 UNK        -0.1150 
      4 C4         -9.9247   -5.9166   39.1875 C.ar      1 UNK        -0.1150 
      5 C5         -1.9908   -9.0100   37.1362 C.2       1 UNK         0.4050 
      6 C6         -5.7470   -9.9911   39.3504 C.2       1 UNK        -0.3255 
      7 C7         -4.8785   -8.9248   39.3379 C.2       1 UNK         0.0473 
      8 C8         -8.7054   -5.9371   39.8852 C.ar      1 UNK         0.1750 
      9 C9         -7.6030   -4.9011   37.9472 C.ar      1 UNK         0.0850 
     10 C10       -10.0156   -5.4050   37.8795 C.ar      1 UNK         0.0850 
     11 C11        -8.8496   -4.8628   37.2603 C.ar      1 UNK         0.0850 
     12 C12        -3.6903   -8.8335   38.5022 C.2       1 UNK         0.3480 
     13 C13        -6.4705   -8.1921   40.8956 C.2       1 UNK        -0.0562 
     14 C14        -5.2056   -4.5970   37.9037 C.3       1 UNK         0.1100 
     15 C15       -11.4678   -5.3135   35.9341 C.3       1 UNK         0.1100 
     16 C16        -8.3885   -3.0275   35.8073 C.3       1 UNK         0.1100 
     17 N17        -1.9176   -7.7857   37.6281 N.2       1 UNK        -0.4130 
     18 N18        -8.6671   -6.4786   41.1748 N.pl3     1 UNK        -0.5856 
     19 O19        -6.4470   -5.9995   42.3468 O.2       1 UNK        -0.4680 
     20 O20        -7.9185   -7.9755   43.0872 O.2       1 UNK        -0.4680 
     21 O21        -3.0003   -7.6634   38.5056 O.3       1 UNK        -0.1220 
     22 O22        -6.4779   -4.4424   37.2888 O.3       1 UNK        -0.2850 
     23 O23       -11.2837   -5.4702   37.3327 O.3       1 UNK        -0.2850 
     24 O24        -8.9366   -4.3266   35.9944 O.3       1 UNK        -0.2850 
     25 S25        -7.0884   -9.7518   40.4424 S.3       1 UNK         0.0328 
     26 S26        -7.3299   -7.1333   42.0375 S.o2      1 UNK         0.9819 
     27 H27        -3.4161  -10.7346   37.4320 H         1 UNK         0.1840 
     28 H28        -4.7478   -6.9866   40.3839 H         1 UNK         0.1211 
     29 H29        -6.6270   -5.4251   39.8145 H         1 UNK         0.1150 
     30 H30       -10.8193   -6.3107   39.6465 H         1 UNK         0.1150 
     31 H31        -1.2446   -9.3345   36.4254 H         1 UNK         0.0530 
     32 H32        -5.6839  -10.9012   38.7725 H         1 UNK         0.2618 
     33 H33        -4.4325   -4.2375   37.2248 H         1 UNK         0.0300 
     34 H34        -4.9892   -5.6442   38.1189 H         1 UNK         0.0300 
     35 H35        -5.1321   -4.0134   38.8225 H         1 UNK         0.0300 
     36 H36       -12.4770   -5.6304   35.6713 H         1 UNK         0.0300 
     37 H37       -10.7747   -5.9306   35.3608 H         1 UNK         0.0300 
     38 H38       -11.3697   -4.2697   35.6345 H         1 UNK         0.0300 
     39 H39        -9.0015   -2.4807   35.0912 H         1 UNK         0.0300 
     40 H40        -7.3809   -3.0856   35.3953 H         1 UNK         0.0300 
     41 H41        -8.3624   -2.4445   36.7298 H         1 UNK         0.0300 
     42 H42        -9.5490   -6.7271   41.5916 H         1 UNK         0.3572 
@<TRIPOS>BOND
     1    1    5 1    
     2    1   12 2    
     3    1   27 1    
     4    2    7 1    
     5    2   13 2    
     6    2   28 1    
     7    3    8 ar   
     8    3    9 ar   
     9    3   29 1    
    10    4    8 ar   
    11    4   10 ar   
    12    4   30 1    
    13    5   17 2    
    14    5   31 1    
    15    6    7 2    
    16    6   25 1    
    17    6   32 1    
    18    7   12 1    
    19    8   18 1    
    20    9   11 ar   
    21    9   22 1    
    22   10   11 ar   
    23   10   23 1    
    24   11   24 1    
    25   12   21 1    
    26   13   25 1    
    27   13   26 1    
    28   14   22 1    
    29   14   33 1    
    30   14   34 1    
    31   14   35 1    
    32   15   23 1    
    33   15   36 1    
    34   15   37 1    
    35   15   38 1    
    36   16   24 1    
    37   16   39 1    
    38   16   40 1    
    39   16   41 1    
    40   17   21 1    
    41   18   26 1    
    42   18   42 1    
    43   19   26 2    
    44   20   26 2    
@<TRIPOS>SUBSTRUCTURE
     1 UNK         1 GROUP             0       ****    0 ROOT    
@<TRIPOS>MOLECULE
ZINC33309646_25
45   46    1
SMALL
USER_CHARGES


@<TRIPOS>ATOM
      1 C1        -10.6459  -22.0931   36.9810 C.2       1 UNK        -0.1540 
      2 C2        -11.0729  -21.0378   37.8341 C.2       1 UNK        -0.1540 
      3 C3        -15.8699  -12.7282   38.3173 C.ar      1 UNK        -0.1150 
      4 C4        -14.5902  -11.4559   39.9420 C.ar      1 UNK        -0.1150 
      5 C5        -10.9537  -21.6970   35.7118 C.2       1 UNK        -0.0190 
      6 C6        -14.9293  -12.6934   39.3668 C.ar      1 UNK        -0.1150 
      7 C7        -16.4343  -11.5323   37.8092 C.ar      1 UNK         0.0850 
      8 C8        -15.1361  -10.2500   39.4665 C.ar      1 UNK         0.0850 
      9 C9        -16.0377  -10.2818   38.3620 C.ar      1 UNK         0.0850 
     10 C10       -11.6089  -20.0695   37.0270 C.2       1 UNK         0.1230 
     11 C11       -12.2074  -18.7882   37.2469 C.2       1 UNK        -0.1150 
     12 C12       -13.0897  -16.8150   38.2852 C.2       1 UNK         0.3879 
     13 C13       -14.3252  -13.9536   39.9104 C.2       1 UNK         0.6150 
     14 C14       -12.4654  -18.1243   38.3961 C.2       1 UNK        -0.1797 
     15 C15       -12.1425  -18.6675   39.7849 C.3       1 UNK        -0.1800 
     16 C16       -17.8998  -12.7632   36.3358 C.3       1 UNK         0.1100 
     17 C17       -15.4640   -7.9284   40.0738 C.3       1 UNK         0.1100 
     18 C18       -16.4060   -8.9058   36.4527 C.3       1 UNK         0.1100 
     19 N19       -13.4061  -16.0559   39.2719 N.2       1 UNK        -0.2833 
     20 N20       -13.9809  -14.8611   38.9852 N.am      1 UNK        -0.2934 
     21 O21       -14.1164  -14.0871   41.1142 O.2       1 UNK        -0.5000 
     22 O22       -11.5396  -20.4693   35.7247 O.3       1 UNK        -0.1900 
     23 O23       -17.3757  -11.5277   36.7987 O.3       1 UNK        -0.2850 
     24 O24       -14.6938   -9.1195   40.1253 O.3       1 UNK        -0.2850 
     25 O25       -16.5343   -9.1014   37.8548 O.3       1 UNK        -0.2850 
     26 H26       -10.1746  -23.0238   37.2610 H         1 UNK         0.1260 
     27 H27       -10.9920  -20.9986   38.9096 H         1 UNK         0.1260 
     28 H28       -16.1617  -13.6886   37.9228 H         1 UNK         0.1150 
     29 H29       -13.8951  -11.4274   40.7700 H         1 UNK         0.1150 
     30 H30       -10.8324  -22.1423   34.7347 H         1 UNK         0.1420 
     31 H31       -12.4788  -18.3111   36.3149 H         1 UNK         0.1150 
     32 H32       -13.2835  -16.5002   37.2582 H         1 UNK         0.0685 
     33 H33       -11.0688  -18.8277   39.8835 H         1 UNK         0.0600 
     34 H34       -12.6512  -19.6188   39.9426 H         1 UNK         0.0600 
     35 H35       -12.4441  -18.0051   40.5972 H         1 UNK         0.0600 
     36 H36       -18.6678  -12.5673   35.5876 H         1 UNK         0.0300 
     37 H37       -18.3656  -13.3284   37.1444 H         1 UNK         0.0300 
     38 H38       -17.1287  -13.3714   35.8621 H         1 UNK         0.0300 
     39 H39       -16.5282   -8.1229   40.2158 H         1 UNK         0.0300 
     40 H40       -15.3085   -7.3966   39.1350 H         1 UNK         0.0300 
     41 H41       -15.1443   -7.2645   40.8766 H         1 UNK         0.0300 
     42 H42       -16.2355   -7.8478   36.2542 H         1 UNK         0.0300 
     43 H43       -17.3207   -9.1905   35.9330 H         1 UNK         0.0300 
     44 H44       -15.5675   -9.4599   36.0270 H         1 UNK         0.0300 
     45 H45       -14.1232  -14.6456   38.0119 H         1 UNK         0.3000 
@<TRIPOS>BOND
     1    1    2 1    
     2    1    5 2    
     3    1   26 1    
     4    2   10 2    
     5    2   27 1    
     6    3    6 ar   
     7    3    7 ar   
     8    3   28 1    
     9    4    6 ar   
    10    4    8 ar   
    11    4   29 1    
    12    5   22 1    
    13    5   30 1    
    14    6   13 1    
    15    7    9 ar   
    16    7   23 1    
    17    8    9 ar   
    18    8   24 1    
    19    9   25 1    
    20   10   11 1    
    21   10   22 1    
    22   11   14 2    
    23   11   31 1    
    24   12   14 1    
    25   12   19 2    
    26   12   32 1    
    27   13   20 am   BACKBONE|DICT|INTERRES
    28   13   21 2    
    29   14   15 1    
    30   15   33 1    
    31   15   34 1    
    32   15   35 1    
    33   16   23 1    
    34   16   36 1    
    35   16   37 1    
    36   16   38 1    
    37   17   24 1    
    38   17   39 1    
    39   17   40 1    
    40   17   41 1    
    41   18   25 1    
    42   18   42 1    
    43   18   43 1    
    44   18   44 1    
    45   19   20 1    
    46   20   45 1    
@<TRIPOS>SUBSTRUCTURE
     1 UNK         1 GROUP             0       ****    0 ROOT    
@<TRIPOS>MOLECULE
ZINC33605936_88
46   48    1
SMALL
USER_CHARGES


@<TRIPOS>ATOM
      1 C1         -7.3890  -15.1302   35.2116 C.ar      1 UNK        -0.1150 
      2 C2         -7.8593  -16.0206   36.1940 C.ar      1 UNK        -0.1150 
      3 C3         -7.3328  -13.7522   35.4884 C.ar      1 UNK        -0.1150 
      4 C4         -8.2692  -15.5313   37.4507 C.ar      1 UNK        -0.1150 
      5 C5         -7.7452  -13.2704   36.7467 C.ar      1 UNK        -0.1150 
      6 C6        -10.8766   -6.7780   39.5725 C.ar      1 UNK        -0.1150 
      7 C7        -11.0852   -6.1428   38.3345 C.ar      1 UNK        -0.1150 
      8 C8        -11.8497   -8.8209   38.6826 C.ar      1 UNK        -0.1150 
      9 C9         -8.5546  -14.4047   40.2492 C.ar      1 UNK        -0.6890 
     10 C10        -8.2193  -14.1493   37.7496 C.ar      1 UNK         0.0000 
     11 C11       -11.2409   -8.1260   39.7509 C.ar      1 UNK         0.0631 
     12 C12       -11.6708   -6.8461   37.2526 C.ar      1 UNK         0.0850 
     13 C13       -12.0594   -8.1943   37.4294 C.ar      1 UNK         0.0850 
     14 C14        -8.6412  -13.6388   39.0737 C.ar      1 UNK         0.6640 
     15 C15        -8.9958  -13.7949   41.4303 C.ar      1 UNK         0.5490 
     16 C16        -9.5106  -11.9115   40.2773 C.ar      1 UNK         0.9663 
     17 C17       -11.0038   -8.7688   41.0600 C.2       1 UNK         0.1451 
     18 C18        -8.9424  -14.5151   42.7591 C.3       1 UNK        -0.0650 
     19 C19       -11.4759   -4.9510   35.7833 C.3       1 UNK         0.1100 
     20 C20       -12.9792  -10.2014   36.4710 C.3       1 UNK         0.1100 
     21 N21        -9.1252  -12.3823   39.1063 N.ar      1 UNK        -0.8390 
     22 N22        -9.4775  -12.5465   41.4398 N.ar      1 UNK        -0.8390 
     23 N23       -10.4922   -9.9360   41.2607 N.2       1 UNK        -0.2767 
     24 N24       -10.0004  -10.6284   40.2334 N.pl3     1 UNK        -0.5043 
     25 O25       -11.8929   -6.2883   36.0110 O.3       1 UNK        -0.2850 
     26 O26       -12.6301   -8.8305   36.3462 O.3       1 UNK        -0.2850 
     27 H27        -7.0746  -15.5025   34.2469 H         1 UNK         0.1150 
     28 H28        -7.9090  -17.0792   35.9834 H         1 UNK         0.1150 
     29 H29        -6.9744  -13.0623   34.7380 H         1 UNK         0.1150 
     30 H30        -8.6382  -16.2268   38.1893 H         1 UNK         0.1150 
     31 H31        -7.6973  -12.2102   36.9505 H         1 UNK         0.1150 
     32 H32       -10.4216   -6.2263   40.3829 H         1 UNK         0.1150 
     33 H33       -10.7823   -5.1118   38.2393 H         1 UNK         0.1150 
     34 H34       -12.1567   -9.8423   38.8502 H         1 UNK         0.1150 
     35 H35        -8.1535  -15.4061   40.2501 H         1 UNK         0.1970 
     36 H36       -11.2838   -8.1910   41.9418 H         1 UNK         0.0685 
     37 H37        -7.9148  -14.5627   43.1181 H         1 UNK         0.0600 
     38 H38        -9.5427  -13.9971   43.5082 H         1 UNK         0.0600 
     39 H39        -9.3254  -15.5303   42.6592 H         1 UNK         0.0600 
     40 H40       -11.7026   -4.6759   34.7533 H         1 UNK         0.0300 
     41 H41       -10.4000   -4.8391   35.9244 H         1 UNK         0.0300 
     42 H42       -12.0032   -4.2524   36.4342 H         1 UNK         0.0300 
     43 H43       -13.3847  -10.5558   35.5234 H         1 UNK         0.0300 
     44 H44       -13.7466  -10.3494   37.2320 H         1 UNK         0.0300 
     45 H45       -12.1097  -10.8165   36.7076 H         1 UNK         0.0300 
     46 H46        -9.9609  -10.2303   39.3092 H         1 UNK         0.3800 
@<TRIPOS>BOND
     1    1    2 ar   
     2    1    3 ar   
     3    1   27 1    
     4    2    4 ar   
     5    2   28 1    
     6    3    5 ar   
     7    3   29 1    
     8    4   10 ar   
     9    4   30 1    
    10    5   10 ar   
    11    5   31 1    
    12    6    7 ar   
    13    6   11 ar   
    14    6   32 1    
    15    7   12 ar   
    16    7   33 1    
    17    8   11 ar   
    18    8   13 ar   
    19    8   34 1    
    20    9   14 ar   
    21    9   15 ar   
    22    9   35 1    
    23   10   14 1    
    24   11   17 1    
    25   12   13 ar   
    26   12   25 1    
    27   13   26 1    
    28   14   21 ar   
    29   15   18 1    
    30   15   22 ar   
    31   16   21 ar   
    32   16   22 ar   
    33   16   24 1    
    34   17   23 2    
    35   17   36 1    
    36   18   37 1    
    37   18   38 1    
    38   18   39 1    
    39   19   25 1    
    40   19   40 1    
    41   19   41 1    
    42   19   42 1    
    43   20   26 1    
    44   20   43 1    
    45   20   44 1    
    46   20   45 1    
    47   23   24 1    
    48   24   46 1    
@<TRIPOS>SUBSTRUCTURE
     1 UNK         1 GROUP             0       ****    0 ROOT    
@<TRIPOS>MOLECULE
ZINC34712772_76
46   48    1
SMALL
USER_CHARGES


@<TRIPOS>ATOM
      1 C1         -5.7599  -11.3355   35.1535 C.ar      1 UNK        -0.1150 
      2 C2         -6.1087  -10.7359   36.3776 C.ar      1 UNK        -0.1150 
      3 C3         -5.7425  -12.7375   35.0326 C.ar      1 UNK        -0.1150 
      4 C4         -6.4195  -12.9391   37.3620 C.ar      1 UNK        -0.1150 
      5 C5         -7.4350  -10.3132   41.0697 C.2       1 UNK        -0.3376 
      6 C6         -6.4422  -11.5319   37.4955 C.ar      1 UNK         0.0000 
      7 C7         -6.0742  -13.5534   36.1418 C.ar      1 UNK         0.0850 
      8 C8         -7.3520   -9.2235   40.2378 C.2       1 UNK         0.1693 
      9 C9         -6.8090  -10.8899   38.7603 C.2       1 UNK         0.3009 
     10 C10        -7.5472   -7.8158   40.7238 C.2       1 UNK         0.6150 
     11 C11        -9.5285   -4.0824   37.0408 C.2       1 UNK         0.5000 
     12 C12        -8.3351   -5.5242   40.3238 C.3       1 UNK        -0.0500 
     13 C13        -8.9053   -7.3074   38.6813 C.3       1 UNK        -0.0500 
     14 C14        -8.3340   -4.5615   39.1182 C.3       1 UNK        -0.0500 
     15 C15        -9.9253   -6.2504   38.2188 C.3       1 UNK        -0.0500 
     16 C16       -10.5646   -4.4463   35.9787 C.3       1 UNK        -0.1800 
     17 C17        -5.8340  -17.0961   35.1333 C.3       1 UNK        -0.1800 
     18 C18        -5.7467  -15.5864   34.9036 C.3       1 UNK         0.1400 
     19 N19        -6.9584   -9.5729   38.9372 N.2       1 UNK        -0.4803 
     20 N20        -8.1979   -6.9332   39.9188 N.am      1 UNK        -0.1400 
     21 N21        -9.2865   -4.9371   38.0629 N.am      1 UNK        -0.1400 
     22 O22        -7.1617   -7.5070   41.8530 O.2       1 UNK        -0.5000 
     23 O23        -8.9469   -3.0041   36.9354 O.2       1 UNK        -0.5000 
     24 O24        -6.0865  -14.9310   36.1165 O.3       1 UNK        -0.2850 
     25 S25        -7.1016  -11.8077   40.2394 S.3       1 UNK         0.0010 
     26 H26        -5.5049  -10.7174   34.3050 H         1 UNK         0.1150 
     27 H27        -6.1179   -9.6582   36.4573 H         1 UNK         0.1150 
     28 H28        -5.4711  -13.1612   34.0781 H         1 UNK         0.1150 
     29 H29        -6.6709  -13.5761   38.1961 H         1 UNK         0.1150 
     30 H30        -7.6658  -10.3081   42.1249 H         1 UNK         0.2317 
     31 H31        -7.5308   -5.2196   40.9968 H         1 UNK         0.0600 
     32 H32        -9.2599   -5.4166   40.8922 H         1 UNK         0.0600 
     33 H33        -9.4260   -8.2573   38.8137 H         1 UNK         0.0600 
     34 H34        -8.1675   -7.4557   37.8911 H         1 UNK         0.0600 
     35 H35        -8.5478   -3.5502   39.4701 H         1 UNK         0.0600 
     36 H36        -7.3349   -4.5288   38.6799 H         1 UNK         0.0600 
     37 H37       -10.3775   -6.6116   37.2959 H         1 UNK         0.0600 
     38 H38       -10.7383   -6.1624   38.9410 H         1 UNK         0.0600 
     39 H39       -11.5229   -4.6907   36.4366 H         1 UNK         0.0600 
     40 H40       -10.2222   -5.2915   35.3820 H         1 UNK         0.0600 
     41 H41       -10.7221   -3.6043   35.3044 H         1 UNK         0.0600 
     42 H42        -5.1477  -17.4109   35.9195 H         1 UNK         0.0600 
     43 H43        -6.8413  -17.3871   35.4318 H         1 UNK         0.0600 
     44 H44        -5.5805  -17.6448   34.2263 H         1 UNK         0.0600 
     45 H45        -6.4348  -15.2960   34.1081 H         1 UNK         0.0300 
     46 H46        -4.7341  -15.3196   34.5967 H         1 UNK         0.0300 
@<TRIPOS>BOND
     1    1    2 ar   
     2    1    3 ar   
     3    1   26 1    
     4    2    6 ar   
     5    2   27 1    
     6    3    7 ar   
     7    3   28 1    
     8    4    6 ar   
     9    4    7 ar   
    10    4   29 1    
    11    5    8 2    
    12    5   25 1    
    13    5   30 1    
    14    6    9 1    
    15    7   24 1    
    16    8   10 1    
    17    8   19 1    
    18    9   19 2    
    19    9   25 1    
    20   10   20 am   BACKBONE|DICT|INTERRES
    21   10   22 2    
    22   11   16 1    
    23   11   21 am   BACKBONE|DICT|INTERRES
    24   11   23 2    
    25   12   14 1    
    26   12   20 1    
    27   12   31 1    
    28   12   32 1    
    29   13   15 1    
    30   13   20 1    
    31   13   33 1    
    32   13   34 1    
    33   14   21 1    
    34   14   35 1    
    35   14   36 1    
    36   15   21 1    
    37   15   37 1    
    38   15   38 1    
    39   16   39 1    
    40   16   40 1    
    41   16   41 1    
    42   17   18 1    
    43   17   42 1    
    44   17   43 1    
    45   17   44 1    
    46   18   24 1    
    47   18   45 1    
    48   18   46 1    
@<TRIPOS>SUBSTRUCTURE
     1 UNK         1 GROUP             0       ****    0 ROOT    
@<TRIPOS>MOLECULE
ZINC35316287_177
45   47    1
SMALL
USER_CHARGES


@<TRIPOS>ATOM
      1 C1         -6.0765  -12.2621   37.2932 C.ar      1 UNK        -0.1150 
      2 C2         -4.8442  -10.2725   36.6155 C.ar      1 UNK        -0.1150 
      3 C3         -5.8232  -12.8464   36.0365 C.ar      1 UNK        -0.1150 
      4 C4         -4.5895  -10.8558   35.3588 C.ar      1 UNK        -0.1150 
      5 C5         -8.8460   -3.5985   37.4088 C.ar      1 UNK        -0.1150 
      6 C6         -8.3081   -4.7586   36.8217 C.ar      1 UNK        -0.1150 
      7 C7         -7.9862   -4.2840   39.5756 C.ar      1 UNK        -0.1150 
      8 C8         -5.5877  -10.9705   37.5927 C.ar      1 UNK         0.0000 
      9 C9         -5.0770  -12.1457   35.0673 C.ar      1 UNK        -0.1150 
     10 C10        -7.4529   -5.4591   38.9934 C.ar      1 UNK         0.0850 
     11 C11        -8.6923   -3.3456   38.7842 C.ar      1 UNK         0.0850 
     12 C12        -7.6026   -5.6989   37.6100 C.ar      1 UNK         0.0850 
     13 C13        -5.8431  -10.3494   38.8922 C.2       1 UNK         0.6636 
     14 C14        -6.0014   -9.1044   40.5651 C.2       1 UNK         0.5497 
     15 C15        -6.6897   -6.7112   41.0321 C.2       1 UNK         0.5000 
     16 C16        -4.8041  -12.7753   33.7170 C.3       1 UNK        -0.0650 
     17 C17        -9.1301   -1.9105   40.6583 C.3       1 UNK         0.1100 
     18 C18        -7.2235   -7.1553   35.7339 C.3       1 UNK         0.1100 
     19 C19        -5.8567   -7.9225   41.4763 C.3       1 UNK        -0.0050 
     20 N20        -5.4561   -9.1441   39.3145 N.2       1 UNK        -0.7040 
     21 N21        -6.6583  -10.1944   40.9393 N.2       1 UNK        -0.4268 
     22 N22        -6.7254   -6.4418   39.7138 N.am      1 UNK        -0.3850 
     23 O23        -7.2446   -6.0253   41.8906 O.2       1 UNK        -0.5000 
     24 O24        -6.5632  -11.0319   39.8182 O.3       1 UNK        -0.1975 
     25 O25        -9.2476   -2.1810   39.2683 O.3       1 UNK        -0.2850 
     26 O26        -7.0412   -6.8580   37.1103 O.3       1 UNK        -0.2850 
     27 H27        -6.6491  -12.8117   38.0268 H         1 UNK         0.1150 
     28 H28        -4.4672   -9.2830   36.8334 H         1 UNK         0.1150 
     29 H29        -6.2042  -13.8348   35.8218 H         1 UNK         0.1150 
     30 H30        -4.0175  -10.3092   34.6225 H         1 UNK         0.1150 
     31 H31        -9.3827   -2.8884   36.7971 H         1 UNK         0.1150 
     32 H32        -8.4515   -4.9007   35.7622 H         1 UNK         0.1150 
     33 H33        -7.8455   -4.1018   40.6277 H         1 UNK         0.1150 
     34 H34        -5.6038  -12.5290   33.0183 H         1 UNK         0.0600 
     35 H35        -3.8618  -12.4161   33.3021 H         1 UNK         0.0600 
     36 H36        -4.7415  -13.8609   33.7990 H         1 UNK         0.0600 
     37 H37        -9.6323   -0.9706   40.8863 H         1 UNK         0.0300 
     38 H38        -8.0861   -1.8074   40.9573 H         1 UNK         0.0300 
     39 H39        -9.6025   -2.6899   41.2581 H         1 UNK         0.0300 
     40 H40        -6.7449   -8.1074   35.5047 H         1 UNK         0.0300 
     41 H41        -6.7669   -6.3956   35.0985 H         1 UNK         0.0300 
     42 H42        -8.2808   -7.2499   35.4832 H         1 UNK         0.0300 
     43 H43        -6.1508   -8.2055   42.4877 H         1 UNK         0.0600 
     44 H44        -4.8080   -7.6314   41.5228 H         1 UNK         0.0600 
     45 H45        -6.2598   -7.1194   39.1178 H         1 UNK         0.3000 
@<TRIPOS>BOND
     1    1    3 ar   
     2    1    8 ar   
     3    1   27 1    
     4    2    4 ar   
     5    2    8 ar   
     6    2   28 1    
     7    3    9 ar   
     8    3   29 1    
     9    4    9 ar   
    10    4   30 1    
    11    5    6 ar   
    12    5   11 ar   
    13    5   31 1    
    14    6   12 ar   
    15    6   32 1    
    16    7   10 ar   
    17    7   11 ar   
    18    7   33 1    
    19    8   13 1    
    20    9   16 1    
    21   10   12 ar   
    22   10   22 1    
    23   11   25 1    
    24   12   26 1    
    25   13   20 2    
    26   13   24 1    
    27   14   19 1    
    28   14   20 1    
    29   14   21 2    
    30   15   19 1    
    31   15   22 am   BACKBONE|DICT|INTERRES
    32   15   23 2    
    33   16   34 1    
    34   16   35 1    
    35   16   36 1    
    36   17   25 1    
    37   17   37 1    
    38   17   38 1    
    39   17   39 1    
    40   18   26 1    
    41   18   40 1    
    42   18   41 1    
    43   18   42 1    
    44   19   43 1    
    45   19   44 1    
    46   21   24 1    
    47   22   45 1    
@<TRIPOS>SUBSTRUCTURE
     1 UNK         1 GROUP             0       ****    0 ROOT    
@<TRIPOS>MOLECULE
ZINC35316289_227
42   44    1
SMALL
USER_CHARGES


@<TRIPOS>ATOM
      1 C1         -4.1095  -12.6478   36.3709 C.ar      1 UNK        -0.1150 
      2 C2         -4.7897  -12.3285   35.1813 C.ar      1 UNK        -0.1150 
      3 C3         -4.3912  -11.9359   37.5535 C.ar      1 UNK        -0.1150 
      4 C4         -8.6038   -3.1817   37.3479 C.ar      1 UNK        -0.1150 
      5 C5         -8.7547   -4.4636   36.7890 C.ar      1 UNK        -0.1150 
      6 C6         -5.7452  -11.2946   35.1770 C.ar      1 UNK        -0.1150 
      7 C7         -7.9174   -4.1733   39.4576 C.ar      1 UNK        -0.1150 
      8 C8         -5.3588  -10.9038   37.5622 C.ar      1 UNK         0.0000 
      9 C9         -8.0745   -5.4682   38.9048 C.ar      1 UNK         0.0850 
     10 C10        -8.1859   -3.0197   38.6810 C.ar      1 UNK         0.0850 
     11 C11        -8.4907   -5.6182   37.5638 C.ar      1 UNK         0.0850 
     12 C12        -6.0295  -10.5809   36.3581 C.ar      1 UNK         0.2200 
     13 C13        -5.6262  -10.1774   38.8039 C.2       1 UNK         0.6636 
     14 C14        -6.3848   -9.1051   40.4349 C.2       1 UNK         0.5497 
     15 C15        -7.5353   -6.9023   40.9026 C.2       1 UNK         0.5000 
     16 C16        -7.6648   -1.5279   40.4890 C.3       1 UNK         0.1100 
     17 C17        -8.9974   -7.0948   35.7348 C.3       1 UNK         0.1100 
     18 C18        -7.3264   -8.3605   41.3301 C.3       1 UNK        -0.0050 
     19 N19        -6.7529   -9.5894   39.2143 N.2       1 UNK        -0.7040 
     20 N20        -5.1425   -9.3810   40.8093 N.2       1 UNK        -0.4268 
     21 N21        -7.8208   -6.6789   39.6060 N.am      1 UNK        -0.3850 
     22 O22        -7.4855   -6.0222   41.7617 O.2       1 UNK        -0.5000 
     23 O23        -4.6263  -10.0953   39.7191 O.3       1 UNK        -0.1975 
     24 O24        -8.0642   -1.7260   39.1400 O.3       1 UNK        -0.2850 
     25 O25        -8.6173   -6.9085   37.0900 O.3       1 UNK        -0.2850 
     26 F26        -6.9408   -9.5808   36.3065 F         1 UNK        -0.2200 
     27 H27        -3.3714  -13.4378   36.3774 H         1 UNK         0.1150 
     28 H28        -4.5758  -12.8713   34.2716 H         1 UNK         0.1150 
     29 H29        -3.8637  -12.1890   38.4625 H         1 UNK         0.1150 
     30 H30        -8.8099   -2.3078   36.7475 H         1 UNK         0.1150 
     31 H31        -9.0764   -4.5314   35.7618 H         1 UNK         0.1150 
     32 H32        -6.2637  -11.0405   34.2643 H         1 UNK         0.1150 
     33 H33        -7.5853   -4.0621   40.4753 H         1 UNK         0.1150 
     34 H34        -7.6307   -0.4595   40.7015 H         1 UNK         0.0300 
     35 H35        -6.6685   -1.9321   40.6733 H         1 UNK         0.0300 
     36 H36        -8.3728   -1.9793   41.1855 H         1 UNK         0.0300 
     37 H37        -9.0486   -8.1617   35.5184 H         1 UNK         0.0300 
     38 H38        -8.2680   -6.6552   35.0532 H         1 UNK         0.0300 
     39 H39        -9.9827   -6.6723   35.5343 H         1 UNK         0.0300 
     40 H40        -8.2908   -8.8674   41.3403 H         1 UNK         0.0600 
     41 H41        -6.9478   -8.3831   42.3527 H         1 UNK         0.0600 
     42 H42        -7.8708   -7.5012   39.0131 H         1 UNK         0.3000 
@<TRIPOS>BOND
     1    1    2 ar   
     2    1    3 ar   
     3    1   27 1    
     4    2    6 ar   
     5    2   28 1    
     6    3    8 ar   
     7    3   29 1    
     8    4    5 ar   
     9    4   10 ar   
    10    4   30 1    
    11    5   11 ar   
    12    5   31 1    
    13    6   12 ar   
    14    6   32 1    
    15    7    9 ar   
    16    7   10 ar   
    17    7   33 1    
    18    8   12 ar   
    19    8   13 1    
    20    9   11 ar   
    21    9   21 1    
    22   10   24 1    
    23   11   25 1    
    24   12   26 1    
    25   13   19 2    
    26   13   23 1    
    27   14   18 1    
    28   14   19 1    
    29   14   20 2    
    30   15   18 1    
    31   15   21 am   BACKBONE|DICT|INTERRES
    32   15   22 2    
    33   16   24 1    
    34   16   34 1    
    35   16   35 1    
    36   16   36 1    
    37   17   25 1    
    38   17   37 1    
    39   17   38 1    
    40   17   39 1    
    41   18   40 1    
    42   18   41 1    
    43   20   23 1    
    44   21   42 1    
@<TRIPOS>SUBSTRUCTURE
     1 UNK         1 GROUP             0       ****    0 ROOT    
@<TRIPOS>MOLECULE
ZINC35594953_101
51   53    1
SMALL
USER_CHARGES


@<TRIPOS>ATOM
      1 C1         -6.1790  -12.0253   34.7136 C.ar      1 UNK        -0.1150 
      2 C2         -5.7218  -12.7821   35.8098 C.ar      1 UNK        -0.1150 
      3 C3         -7.0846  -10.9669   34.9191 C.ar      1 UNK        -0.1150 
      4 C4         -8.7139   -6.1982   39.6624 C.ar      1 UNK        -0.1150 
      5 C5         -6.1701  -12.4817   37.1112 C.ar      1 UNK        -0.1150 
      6 C6         -7.5348  -10.6686   36.2198 C.ar      1 UNK        -0.1150 
      7 C7         -9.2309   -5.4352   38.5995 C.ar      1 UNK        -0.1150 
      8 C8         -9.7740   -8.1850   38.7331 C.ar      1 UNK        -0.1150 
      9 C9         -8.9557   -7.5849   39.7155 C.ar      1 UNK        -0.1150 
     10 C10        -7.0827  -11.4254   37.3230 C.ar      1 UNK        -0.0418 
     11 C11        -9.9907   -6.0463   37.5830 C.ar      1 UNK         0.0850 
     12 C12       -10.2950   -7.4283   37.6548 C.ar      1 UNK         0.0850 
     13 C13        -8.3868   -8.4036   40.8390 C.2       1 UNK         0.6150 
     14 C14        -7.1843  -10.4653   41.4936 C.3       1 UNK        -0.0500 
     15 C15        -7.0087   -9.7362   39.2051 C.3       1 UNK        -0.0500 
     16 C16        -7.7245  -11.8173   40.9960 C.3       1 UNK         0.1400 
     17 C17        -7.5768  -11.0839   38.7205 C.3       1 UNK         0.2118 
     18 C18        -8.5301   -4.9271   35.1235 C.3       1 UNK        -0.1800 
     19 C19       -12.3778   -9.6556   35.5679 C.3       1 UNK        -0.1800 
     20 C20        -9.9309   -5.5340   35.2721 C.3       1 UNK         0.1400 
     21 C21       -11.4895   -9.3268   36.7683 C.3       1 UNK         0.1400 
     22 N22        -7.5769   -9.4420   40.5243 N.am      1 UNK        -0.1400 
     23 O23        -8.6855   -8.1158   41.9963 O.2       1 UNK        -0.5000 
     24 O24        -7.2288  -12.0813   39.6834 O.3       1 UNK        -0.4000 
     25 O25       -10.4574   -5.2525   36.5643 O.3       1 UNK        -0.2850 
     26 O26       -11.1007   -7.9646   36.6712 O.3       1 UNK        -0.2850 
     27 H27        -5.8344  -12.2565   33.7158 H         1 UNK         0.1150 
     28 H28        -5.0270  -13.5947   35.6537 H         1 UNK         0.1150 
     29 H29        -7.4341  -10.3837   34.0794 H         1 UNK         0.1150 
     30 H30        -8.1243   -5.7207   40.4328 H         1 UNK         0.1150 
     31 H31        -5.8129  -13.0678   37.9459 H         1 UNK         0.1150 
     32 H32        -8.2273   -9.8524   36.3674 H         1 UNK         0.1150 
     33 H33        -9.0359   -4.3738   38.5521 H         1 UNK         0.1150 
     34 H34        -9.9963   -9.2347   38.8318 H         1 UNK         0.1150 
     35 H35        -7.5653  -10.2640   42.4964 H         1 UNK         0.0600 
     36 H36        -6.0974  -10.4952   41.5787 H         1 UNK         0.0600 
     37 H37        -5.9227   -9.8009   39.2850 H         1 UNK         0.0600 
     38 H38        -7.1940   -8.9487   38.4754 H         1 UNK         0.0600 
     39 H39        -7.4075  -12.6199   41.6624 H         1 UNK         0.0300 
     40 H40        -8.8159  -11.8214   40.9890 H         1 UNK         0.0300 
     41 H41        -8.6648  -11.0372   38.6638 H         1 UNK         0.0300 
     42 H42        -8.5515   -3.8522   35.3039 H         1 UNK         0.0600 
     43 H43        -7.8282   -5.3728   35.8286 H         1 UNK         0.0600 
     44 H44        -8.1407   -5.0912   34.1188 H         1 UNK         0.0600 
     45 H45       -13.2651   -9.0223   35.5561 H         1 UNK         0.0600 
     46 H46       -11.8421   -9.4980   34.6315 H         1 UNK         0.0600 
     47 H47       -12.7064  -10.6945   35.5969 H         1 UNK         0.0600 
     48 H48        -9.9010   -6.6007   35.0515 H         1 UNK         0.0300 
     49 H49       -10.6003   -5.0896   34.5354 H         1 UNK         0.0300 
     50 H50       -10.6157   -9.9795   36.7622 H         1 UNK         0.0300 
     51 H51       -12.0415   -9.4999   37.6937 H         1 UNK         0.0300 
@<TRIPOS>BOND
     1    1    2 ar   
     2    1    3 ar   
     3    1   27 1    
     4    2    5 ar   
     5    2   28 1    
     6    3    6 ar   
     7    3   29 1    
     8    4    7 ar   
     9    4    9 ar   
    10    4   30 1    
    11    5   10 ar   
    12    5   31 1    
    13    6   10 ar   
    14    6   32 1    
    15    7   11 ar   
    16    7   33 1    
    17    8    9 ar   
    18    8   12 ar   
    19    8   34 1    
    20    9   13 1    
    21   10   17 1    
    22   11   12 ar   
    23   11   25 1    
    24   12   26 1    
    25   13   22 am   BACKBONE|DICT|INTERRES
    26   13   23 2    
    27   14   16 1    
    28   14   22 1    
    29   14   35 1    
    30   14   36 1    
    31   15   17 1    
    32   15   22 1    
    33   15   37 1    
    34   15   38 1    
    35   16   24 1    
    36   16   39 1    
    37   16   40 1    
    38   17   24 1    
    39   17   41 1    
    40   18   20 1    
    41   18   42 1    
    42   18   43 1    
    43   18   44 1    
    44   19   21 1    
    45   19   45 1    
    46   19   46 1    
    47   19   47 1    
    48   20   25 1    
    49   20   48 1    
    50   20   49 1    
    51   21   26 1    
    52   21   50 1    
    53   21   51 1    
@<TRIPOS>SUBSTRUCTURE
     1 UNK         1 GROUP             0       ****    0 ROOT    
@<TRIPOS>MOLECULE
ZINC36358589_245
44   47    1
SMALL
USER_CHARGES


@<TRIPOS>ATOM
      1 C1         -8.4160   -5.8818   39.1359 C.ar      1 UNK        -0.1150 
      2 C2         -9.4923   -5.1704   38.5801 C.ar      1 UNK        -0.1150 
      3 C3         -7.0753   -3.8588   39.0704 C.ar      1 UNK        -0.1150 
      4 C4         -3.6083  -10.4223   35.2195 C.ar      1 UNK        -0.3200 
      5 C5         -7.1935   -5.2288   39.3801 C.ar      1 UNK         0.0000 
      6 C6         -9.3848   -3.8024   38.2598 C.ar      1 UNK         0.0850 
      7 C7         -8.1528   -3.1229   38.5102 C.ar      1 UNK         0.0850 
      8 C8         -3.1700  -11.4669   36.0792 C.ar      1 UNK         0.2230 
      9 C9         -4.6769   -9.8722   35.8697 C.ar      1 UNK         0.0560 
     10 C10        -6.0446   -5.9376   39.9477 C.ar      1 UNK         0.4100 
     11 C11        -4.5059   -7.4547   40.4294 C.ar      1 UNK         0.4175 
     12 C12        -5.4833   -9.1755   38.9343 C.2       1 UNK         0.1303 
     13 C13        -2.0278  -12.4174   35.8894 C.3       1 UNK        -0.0650 
     14 C14        -5.5581   -8.7315   35.4786 C.3       1 UNK        -0.0650 
     15 C15       -10.6080   -1.8871   37.3841 C.3       1 UNK         0.1100 
     16 C16        -6.8183   -1.1053   38.5103 C.3       1 UNK         0.1100 
     17 C17        -5.8103  -10.3996   38.1071 C.3       1 UNK         0.1175 
     18 N18        -3.9085  -11.5547   37.1710 N.2       1 UNK        -0.5310 
     19 N19        -5.1609   -5.4023   40.8090 N.2       1 UNK        -0.3633 
     20 N20        -4.1879   -6.3859   41.1162 N.2       1 UNK        -0.3633 
     21 N21        -6.2184   -8.0570   38.8908 N.2       1 UNK        -0.2500 
     22 N22        -4.8342  -10.5805   37.0478 N.pl3     1 UNK         0.0695 
     23 N23        -5.6260   -7.1847   39.7306 N.pl3     1 UNK        -0.0934 
     24 O24       -10.5376   -3.2633   37.7201 O.3       1 UNK        -0.2850 
     25 O25        -8.0293   -1.7821   38.2025 O.3       1 UNK        -0.2850 
     26 S26        -4.0633   -9.1056   40.0380 S.3       1 UNK        -0.0028 
     27 H27        -8.5390   -6.9264   39.3796 H         1 UNK         0.1150 
     28 H28       -10.4265   -5.6804   38.3963 H         1 UNK         0.1150 
     29 H29        -6.1240   -3.3931   39.2768 H         1 UNK         0.1150 
     30 H30        -3.1950  -10.1218   34.2683 H         1 UNK         0.1500 
     31 H31        -1.2791  -12.2876   36.6708 H         1 UNK         0.0600 
     32 H32        -2.3709  -13.4514   35.9244 H         1 UNK         0.0600 
     33 H33        -1.5383  -12.2606   34.9284 H         1 UNK         0.0600 
     34 H34        -6.6108   -9.0042   35.5517 H         1 UNK         0.0600 
     35 H35        -5.3837   -7.8685   36.1214 H         1 UNK         0.0600 
     36 H36        -5.3642   -8.4256   34.4507 H         1 UNK         0.0600 
     37 H37       -11.6047   -1.6660   37.0028 H         1 UNK         0.0300 
     38 H38        -9.8975   -1.6296   36.5979 H         1 UNK         0.0300 
     39 H39       -10.4475   -1.2517   38.2559 H         1 UNK         0.0300 
     40 H40        -6.9138   -0.0564   38.2299 H         1 UNK         0.0300 
     41 H41        -5.9769   -1.5176   37.9521 H         1 UNK         0.0300 
     42 H42        -6.5996   -1.1402   39.5786 H         1 UNK         0.0300 
     43 H43        -6.8026  -10.3088   37.6655 H         1 UNK         0.0600 
     44 H44        -5.8210  -11.2807   38.7500 H         1 UNK         0.0600 
@<TRIPOS>BOND
     1    1    2 ar   
     2    1    5 ar   
     3    1   27 1    
     4    2    6 ar   
     5    2   28 1    
     6    3    5 ar   
     7    3    7 ar   
     8    3   29 1    
     9    4    8 ar   
    10    4    9 ar   
    11    4   30 1    
    12    5   10 1    
    13    6    7 ar   
    14    6   24 1    
    15    7   25 1    
    16    8   13 1    
    17    8   18 ar   
    18    9   14 1    
    19    9   22 ar   
    20   10   19 ar   
    21   10   23 ar   
    22   11   20 ar   
    23   11   23 ar   
    24   11   26 1    
    25   12   17 1    
    26   12   21 2    
    27   12   26 1    
    28   13   31 1    
    29   13   32 1    
    30   13   33 1    
    31   14   34 1    
    32   14   35 1    
    33   14   36 1    
    34   15   24 1    
    35   15   37 1    
    36   15   38 1    
    37   15   39 1    
    38   16   25 1    
    39   16   40 1    
    40   16   41 1    
    41   16   42 1    
    42   17   22 1    
    43   17   43 1    
    44   17   44 1    
    45   18   22 ar   
    46   19   20 ar   
    47   21   23 1    
@<TRIPOS>SUBSTRUCTURE
     1 UNK         1 GROUP             0       ****    0 ROOT    
@<TRIPOS>MOLECULE
ZINC36697934_25
44   46    1
SMALL
USER_CHARGES


@<TRIPOS>ATOM
      1 C1         -4.8752   -9.9527   36.8975 C.ar      1 UNK        -0.1150 
      2 C2         -5.2277   -8.5944   36.7324 C.ar      1 UNK        -0.1150 
      3 C3         -5.0254  -10.5782   38.1523 C.ar      1 UNK        -0.1150 
      4 C4         -5.7474   -7.8495   37.8133 C.ar      1 UNK        -0.1150 
      5 C5         -8.4366   -6.3655   38.6972 C.ar      1 UNK        -0.1150 
      6 C6         -7.0141   -4.5173   39.4041 C.ar      1 UNK        -0.1150 
      7 C7         -7.4124   -5.8631   39.5311 C.ar      1 UNK        -0.1150 
      8 C8         -5.5487   -9.8218   39.2152 C.ar      1 UNK        -0.1150 
      9 C9         -5.9312   -8.4925   39.0604 C.ar      1 UNK        -0.0383 
     10 C10        -9.0255   -5.5512   37.6983 C.ar      1 UNK         0.0850 
     11 C11        -8.5841   -4.2130   37.5578 C.ar      1 UNK         0.0850 
     12 C12        -7.5933   -3.6968   38.4209 C.ar      1 UNK         0.1800 
     13 C13        -6.8068   -6.7225   40.6037 C.2       1 UNK         0.6150 
     14 C14        -5.7358  -10.2842   40.6285 C.3       1 UNK        -0.0050 
     15 C15        -6.2609   -9.0201   41.3531 C.3       1 UNK         0.0100 
     16 C16        -7.5746   -9.3074   42.1105 C.3       1 UNK        -0.1800 
     17 C17        -9.2491   -2.5954   34.3513 C.3       1 UNK        -0.1800 
     18 C18       -10.4711   -7.3312   36.9663 C.3       1 UNK         0.1100 
     19 C19        -8.6915   -3.6717   35.2836 C.3       1 UNK         0.1400 
     20 N20        -6.4118   -7.9876   40.3035 N.am      1 UNK        -0.0317 
     21 O21        -6.6706   -6.2423   41.7293 O.2       1 UNK        -0.5000 
     22 O22       -10.0220   -5.9893   36.8505 O.3       1 UNK        -0.2850 
     23 O23        -9.1299   -3.3917   36.6035 O.3       1 UNK        -0.2850 
     24 Cl24       -7.0641   -2.0600   38.2675 Cl        1 UNK        -0.1800 
     25 H25        -4.4728  -10.5096   36.0634 H         1 UNK         0.1150 
     26 H26        -5.0886   -8.1187   35.7723 H         1 UNK         0.1150 
     27 H27        -4.7350  -11.6094   38.2929 H         1 UNK         0.1150 
     28 H28        -5.9755   -6.8075   37.6546 H         1 UNK         0.1150 
     29 H29        -8.7504   -7.3889   38.8382 H         1 UNK         0.1150 
     30 H30        -6.2586   -4.1109   40.0620 H         1 UNK         0.1150 
     31 H31        -6.4479  -11.1101   40.6526 H         1 UNK         0.0600 
     32 H32        -4.7904  -10.6291   41.0490 H         1 UNK         0.0600 
     33 H33        -5.5029   -8.6745   42.0587 H         1 UNK         0.0600 
     34 H34        -8.3732   -9.5973   41.4270 H         1 UNK         0.0600 
     35 H35        -7.9163   -8.4383   42.6739 H         1 UNK         0.0600 
     36 H36        -7.4391  -10.1178   42.8273 H         1 UNK         0.0600 
     37 H37       -10.3389   -2.5922   34.3700 H         1 UNK         0.0600 
     38 H38        -8.9055   -1.6052   34.6516 H         1 UNK         0.0600 
     39 H39        -8.9304   -2.7654   33.3230 H         1 UNK         0.0600 
     40 H40       -11.2500   -7.5141   36.2261 H         1 UNK         0.0300 
     41 H41       -10.9006   -7.5249   37.9501 H         1 UNK         0.0300 
     42 H42        -9.6635   -8.0398   36.7764 H         1 UNK         0.0300 
     43 H43        -7.6009   -3.6696   35.2420 H         1 UNK         0.0300 
     44 H44        -9.0304   -4.6548   34.9563 H         1 UNK         0.0300 
@<TRIPOS>BOND
     1    1    2 ar   
     2    1    3 ar   
     3    1   25 1    
     4    2    4 ar   
     5    2   26 1    
     6    3    8 ar   
     7    3   27 1    
     8    4    9 ar   
     9    4   28 1    
    10    5    7 ar   
    11    5   10 ar   
    12    5   29 1    
    13    6    7 ar   
    14    6   12 ar   
    15    6   30 1    
    16    7   13 1    
    17    8    9 ar   
    18    8   14 1    
    19    9   20 1    
    20   10   11 ar   
    21   10   22 1    
    22   11   12 ar   
    23   11   23 1    
    24   12   24 1    
    25   13   20 am   BACKBONE|DICT|INTERRES
    26   13   21 2    
    27   14   15 1    
    28   14   31 1    
    29   14   32 1    
    30   15   16 1    
    31   15   20 1    
    32   15   33 1    
    33   16   34 1    
    34   16   35 1    
    35   16   36 1    
    36   17   19 1    
    37   17   37 1    
    38   17   38 1    
    39   17   39 1    
    40   18   22 1    
    41   18   40 1    
    42   18   41 1    
    43   18   42 1    
    44   19   23 1    
    45   19   43 1    
    46   19   44 1    
@<TRIPOS>SUBSTRUCTURE
     1 UNK         1 GROUP             0       ****    0 ROOT    
@<TRIPOS>MOLECULE
ZINC36739786_102
51   53    1
SMALL
USER_CHARGES


@<TRIPOS>ATOM
      1 C1         -2.7139   -8.2446   35.4299 C.ar      1 UNK        -0.1150 
      2 C2         -2.0253   -7.8814   36.6100 C.ar      1 UNK        -0.1150 
      3 C3         -4.0550   -8.6779   35.4927 C.ar      1 UNK        -0.1150 
      4 C4         -2.6683   -7.9416   37.8659 C.ar      1 UNK        -0.1150 
      5 C5         -8.6591   -6.3956   40.0015 C.ar      1 UNK        -0.1150 
      6 C6         -6.6604   -5.5748   38.8850 C.ar      1 UNK        -0.1150 
      7 C7         -4.6771   -8.7334   36.7516 C.ar      1 UNK        -0.1150 
      8 C8         -7.2866   -6.0950   40.0328 C.ar      1 UNK        -0.1150 
      9 C9         -4.0134   -8.3716   37.9194 C.ar      1 UNK        -0.0383 
     10 C10        -9.4121   -6.1847   38.8221 C.ar      1 UNK         0.0850 
     11 C11        -7.3820   -5.3809   37.6816 C.ar      1 UNK         0.0850 
     12 C12        -8.7785   -5.6673   37.6667 C.ar      1 UNK         0.0850 
     13 C13        -4.6973   -7.9190   40.2490 C.2       1 UNK         0.5000 
     14 C14        -6.0844   -9.1587   37.0387 C.3       1 UNK        -0.0050 
     15 C15        -6.1432   -9.1505   38.5865 C.3       1 UNK         0.0100 
     16 C16        -6.2630  -10.5843   39.1420 C.3       1 UNK        -0.1800 
     17 C17       -11.4356   -6.9770   39.8624 C.3       1 UNK         0.1100 
     18 C18        -5.3495   -4.8442   36.4911 C.3       1 UNK         0.1100 
     19 C19        -9.3274   -4.4497   35.6612 C.3       1 UNK         0.1100 
     20 C20        -6.4671   -6.3981   41.2766 C.3       1 UNK        -0.0050 
     21 C21        -5.8620   -7.8171   41.2479 C.3       1 UNK        -0.1200 
     22 N22        -4.8885   -8.5015   39.0327 N.am      1 UNK        -0.0317 
     23 O23        -3.6231   -7.4422   40.6146 O.2       1 UNK        -0.5000 
     24 O24       -10.7608   -6.4638   38.7242 O.3       1 UNK        -0.2850 
     25 O25        -6.7658   -4.9620   36.5187 O.3       1 UNK        -0.2850 
     26 O26        -9.5915   -5.5156   36.5607 O.3       1 UNK        -0.2850 
     27 H27        -2.2098   -8.1927   34.4758 H         1 UNK         0.1150 
     28 H28        -0.9970   -7.5551   36.5525 H         1 UNK         0.1150 
     29 H29        -4.5888   -8.9577   34.5961 H         1 UNK         0.1150 
     30 H30        -2.1205   -7.6625   38.7535 H         1 UNK         0.1150 
     31 H31        -9.1145   -6.8011   40.8914 H         1 UNK         0.1150 
     32 H32        -5.6021   -5.3690   38.9401 H         1 UNK         0.1150 
     33 H33        -6.7745   -8.4284   36.6127 H         1 UNK         0.0600 
     34 H34        -6.2985  -10.1348   36.6022 H         1 UNK         0.0600 
     35 H35        -7.0173   -8.5728   38.8838 H         1 UNK         0.0600 
     36 H36        -5.4287  -11.2030   38.8082 H         1 UNK         0.0600 
     37 H37        -7.1828  -11.0585   38.7985 H         1 UNK         0.0600 
     38 H38        -6.2700  -10.6107   40.2308 H         1 UNK         0.0600 
     39 H39       -12.4860   -7.1322   39.6163 H         1 UNK         0.0300 
     40 H40       -11.3940   -6.2789   40.6995 H         1 UNK         0.0300 
     41 H41       -11.0240   -7.9393   40.1695 H         1 UNK         0.0300 
     42 H42        -5.0301   -4.5881   35.4812 H         1 UNK         0.0300 
     43 H43        -4.8611   -5.7819   36.7584 H         1 UNK         0.0300 
     44 H44        -5.0028   -4.0525   37.1563 H         1 UNK         0.0300 
     45 H45       -10.2512   -4.1800   35.1499 H         1 UNK         0.0300 
     46 H46        -8.6104   -4.7492   34.8966 H         1 UNK         0.0300 
     47 H47        -8.9637   -3.5570   36.1726 H         1 UNK         0.0300 
     48 H48        -7.1003   -6.2876   42.1574 H         1 UNK         0.0600 
     49 H49        -5.6787   -5.6502   41.3831 H         1 UNK         0.0600 
     50 H50        -5.4448   -8.0357   42.2311 H         1 UNK         0.0600 
     51 H51        -6.6371   -8.5634   41.0938 H         1 UNK         0.0600 
@<TRIPOS>BOND
     1    1    2 ar   
     2    1    3 ar   
     3    1   27 1    
     4    2    4 ar   
     5    2   28 1    
     6    3    7 ar   
     7    3   29 1    
     8    4    9 ar   
     9    4   30 1    
    10    5    8 ar   
    11    5   10 ar   
    12    5   31 1    
    13    6    8 ar   
    14    6   11 ar   
    15    6   32 1    
    16    7    9 ar   
    17    7   14 1    
    18    8   20 1    
    19    9   22 1    
    20   10   12 ar   
    21   10   24 1    
    22   11   12 ar   
    23   11   25 1    
    24   12   26 1    
    25   13   21 1    
    26   13   22 am   BACKBONE|DICT|INTERRES
    27   13   23 2    
    28   14   15 1    
    29   14   33 1    
    30   14   34 1    
    31   15   16 1    
    32   15   22 1    
    33   15   35 1    
    34   16   36 1    
    35   16   37 1    
    36   16   38 1    
    37   17   24 1    
    38   17   39 1    
    39   17   40 1    
    40   17   41 1    
    41   18   25 1    
    42   18   42 1    
    43   18   43 1    
    44   18   44 1    
    45   19   26 1    
    46   19   45 1    
    47   19   46 1    
    48   19   47 1    
    49   20   21 1    
    50   20   48 1    
    51   20   49 1    
    52   21   50 1    
    53   21   51 1    
@<TRIPOS>SUBSTRUCTURE
     1 UNK         1 GROUP             0       ****    0 ROOT    
@<TRIPOS>MOLECULE
ZINC38566582_132
48   50    1
SMALL
USER_CHARGES


@<TRIPOS>ATOM
      1 C1        -12.5525  -21.2279   39.1106 C.ar      1 UNK        -0.1150 
      2 C2        -11.3359  -20.4016   37.1763 C.ar      1 UNK        -0.1150 
      3 C3        -12.2313  -22.5488   38.7443 C.ar      1 UNK        -0.1150 
      4 C4        -11.0159  -21.7237   36.8103 C.ar      1 UNK        -0.1150 
      5 C5        -15.7198  -14.5192   38.0551 C.ar      1 UNK        -0.1150 
      6 C6        -13.7772  -13.1605   38.6217 C.ar      1 UNK        -0.1150 
      7 C7        -16.0125  -12.3599   39.1399 C.ar      1 UNK        -0.1150 
      8 C8        -14.3191  -14.3481   38.0909 C.ar      1 UNK        -0.1150 
      9 C9        -12.1197  -20.1392   38.3221 C.ar      1 UNK        -0.1150 
     10 C10       -11.4678  -22.8147   37.5920 C.ar      1 UNK         0.0850 
     11 C11       -16.5775  -13.5264   38.5868 C.ar      1 UNK         0.0850 
     12 C12       -14.6100  -12.1609   39.1573 C.ar      1 UNK         0.0850 
     13 C13       -13.3998  -15.3840   37.5137 C.2       1 UNK         0.6150 
     14 C14       -13.7986  -18.5272   39.4486 C.3       1 UNK        -0.1200 
     15 C15       -14.1518  -17.0515   39.2453 C.3       1 UNK        -0.0500 
     16 C16       -12.5859  -17.7156   37.5537 C.3       1 UNK        -0.0500 
     17 C17       -12.4667  -18.7047   38.7202 C.3       1 UNK         0.0550 
     18 C18       -10.4689  -24.4342   36.1303 C.3       1 UNK         0.1100 
     19 C19       -18.5564  -14.7601   38.0107 C.3       1 UNK         0.1100 
     20 C20       -14.8050  -10.0002   40.1833 C.3       1 UNK         0.1100 
     21 N21       -13.4350  -16.6294   38.0392 N.am      1 UNK        -0.1400 
     22 O22       -12.6360  -15.0706   36.6021 O.2       1 UNK        -0.5000 
     23 O23       -11.2084  -24.1372   37.3056 O.3       1 UNK        -0.2850 
     24 O24       -17.9524  -13.6187   38.6016 O.3       1 UNK        -0.2850 
     25 O25       -13.9892  -11.0427   39.6694 O.3       1 UNK        -0.2850 
     26 H26       -13.1353  -21.0655   40.0048 H         1 UNK         0.1150 
     27 H27       -10.9685  -19.5926   36.5624 H         1 UNK         0.1150 
     28 H28       -12.5744  -23.3718   39.3540 H         1 UNK         0.1150 
     29 H29       -10.4191  -21.8730   35.9239 H         1 UNK         0.1150 
     30 H30       -16.1150  -15.4175   37.6058 H         1 UNK         0.1150 
     31 H31       -12.7060  -13.0134   38.6210 H         1 UNK         0.1150 
     32 H32       -16.6887  -11.6205   39.5395 H         1 UNK         0.1150 
     33 H33       -13.7526  -18.8105   40.5009 H         1 UNK         0.0600 
     34 H34       -14.5633  -19.1418   38.9705 H         1 UNK         0.0600 
     35 H35       -15.2308  -16.9284   39.1573 H         1 UNK         0.0600 
     36 H36       -13.8102  -16.4540   40.0924 H         1 UNK         0.0600 
     37 H37       -11.6050  -17.3702   37.2214 H         1 UNK         0.0600 
     38 H38       -13.0892  -18.1714   36.6996 H         1 UNK         0.0600 
     39 H39       -11.6710  -18.3536   39.3799 H         1 UNK         0.0600 
     40 H40       -10.3696  -25.5150   36.0313 H         1 UNK         0.0300 
     41 H41        -9.4637  -24.0133   36.1760 H         1 UNK         0.0300 
     42 H42       -10.9757  -24.0668   35.2366 H         1 UNK         0.0300 
     43 H43       -19.6400  -14.6745   38.0908 H         1 UNK         0.0300 
     44 H44       -18.2599  -15.6779   38.5201 H         1 UNK         0.0300 
     45 H45       -18.3101  -14.8378   36.9508 H         1 UNK         0.0300 
     46 H46       -15.4688   -9.5982   39.4166 H         1 UNK         0.0300 
     47 H47       -14.1701   -9.1847   40.5294 H         1 UNK         0.0300 
     48 H48       -15.3976  -10.3402   41.0336 H         1 UNK         0.0300 
@<TRIPOS>BOND
     1    1    3 ar   
     2    1    9 ar   
     3    1   26 1    
     4    2    4 ar   
     5    2    9 ar   
     6    2   27 1    
     7    3   10 ar   
     8    3   28 1    
     9    4   10 ar   
    10    4   29 1    
    11    5    8 ar   
    12    5   11 ar   
    13    5   30 1    
    14    6    8 ar   
    15    6   12 ar   
    16    6   31 1    
    17    7   11 ar   
    18    7   12 ar   
    19    7   32 1    
    20    8   13 1    
    21    9   17 1    
    22   10   23 1    
    23   11   24 1    
    24   12   25 1    
    25   13   21 am   BACKBONE|DICT|INTERRES
    26   13   22 2    
    27   14   15 1    
    28   14   17 1    
    29   14   33 1    
    30   14   34 1    
    31   15   21 1    
    32   15   35 1    
    33   15   36 1    
    34   16   17 1    
    35   16   21 1    
    36   16   37 1    
    37   16   38 1    
    38   17   39 1    
    39   18   23 1    
    40   18   40 1    
    41   18   41 1    
    42   18   42 1    
    43   19   24 1    
    44   19   43 1    
    45   19   44 1    
    46   19   45 1    
    47   20   25 1    
    48   20   46 1    
    49   20   47 1    
    50   20   48 1    
@<TRIPOS>SUBSTRUCTURE
     1 UNK         1 GROUP             0       ****    0 ROOT    
@<TRIPOS>MOLECULE
ZINC38566590_150
48   50    1
SMALL
USER_CHARGES


@<TRIPOS>ATOM
      1 C1         -6.4067   -3.7968   39.6077 C.ar      1 UNK        -0.1150 
      2 C2         -4.3476  -11.2650   38.5831 C.ar      1 UNK        -0.1150 
      3 C3         -4.3945   -9.4226   36.9991 C.ar      1 UNK        -0.1150 
      4 C4         -6.7614   -2.9489   38.5453 C.ar      1 UNK        -0.1150 
      5 C5         -4.2126  -12.1734   37.5159 C.ar      1 UNK        -0.1150 
      6 C6         -4.2601  -10.3324   35.9323 C.ar      1 UNK        -0.1150 
      7 C7         -7.7575   -5.5589   38.6238 C.ar      1 UNK        -0.1150 
      8 C8         -6.8827   -5.1192   39.6403 C.ar      1 UNK        -0.1150 
      9 C9         -4.4514   -9.8784   38.3345 C.ar      1 UNK        -0.1150 
     10 C10        -4.1708  -11.7233   36.1826 C.ar      1 UNK         0.0850 
     11 C11        -7.6023   -3.3868   37.5028 C.ar      1 UNK         0.0850 
     12 C12        -8.1261   -4.7159   37.5421 C.ar      1 UNK         0.0850 
     13 C13        -6.5081   -6.0153   40.7879 C.2       1 UNK         0.6150 
     14 C14        -5.1109   -9.4304   40.8057 C.3       1 UNK        -0.1200 
     15 C15        -5.6231   -8.1927   41.5456 C.3       1 UNK        -0.0500 
     16 C16        -5.5617   -7.7230   39.1950 C.3       1 UNK        -0.0500 
     17 C17        -4.5912   -8.8760   39.4790 C.3       1 UNK         0.0550 
     18 C18        -4.0196  -12.2581   33.8482 C.3       1 UNK         0.1100 
     19 C19        -8.5562   -2.7532   35.3543 C.3       1 UNK         0.1100 
     20 C20        -9.5415   -6.4518   36.6254 C.3       1 UNK         0.1100 
     21 N21        -5.9846   -7.2298   40.5068 N.am      1 UNK        -0.1400 
     22 O22        -6.6628   -5.6162   41.9409 O.2       1 UNK        -0.5000 
     23 O23        -4.0395  -12.6829   35.2029 O.3       1 UNK        -0.2850 
     24 O24        -7.8392   -2.4292   36.5345 O.3       1 UNK        -0.2850 
     25 O25        -8.9773   -5.1505   36.5451 O.3       1 UNK        -0.2850 
     26 H26        -5.7650   -3.4318   40.3977 H         1 UNK         0.1150 
     27 H27        -4.3671  -11.6529   39.5904 H         1 UNK         0.1150 
     28 H28        -4.4504   -8.3672   36.7773 H         1 UNK         0.1150 
     29 H29        -6.3821   -1.9378   38.5252 H         1 UNK         0.1150 
     30 H30        -4.1382  -13.2315   37.7202 H         1 UNK         0.1150 
     31 H31        -4.2243   -9.9360   34.9295 H         1 UNK         0.1150 
     32 H32        -8.1468   -6.5609   38.7047 H         1 UNK         0.1150 
     33 H33        -4.3552   -9.9804   41.3675 H         1 UNK         0.0600 
     34 H34        -5.9520  -10.1023   40.6258 H         1 UNK         0.0600 
     35 H35        -6.4726   -8.4276   42.1893 H         1 UNK         0.0600 
     36 H36        -4.8380   -7.7642   42.1713 H         1 UNK         0.0600 
     37 H37        -5.0950   -6.9476   38.5850 H         1 UNK         0.0600 
     38 H38        -6.4394   -8.0958   38.6660 H         1 UNK         0.0600 
     39 H39        -3.6008   -8.4527   39.6568 H         1 UNK         0.0600 
     40 H40        -3.9154  -13.1281   33.1998 H         1 UNK         0.0300 
     41 H41        -3.1754  -11.5967   33.6495 H         1 UNK         0.0300 
     42 H42        -4.9477  -11.7534   33.5763 H         1 UNK         0.0300 
     43 H43        -8.5451   -1.8929   34.6851 H         1 UNK         0.0300 
     44 H44        -9.6008   -2.9796   35.5705 H         1 UNK         0.0300 
     45 H45        -8.0964   -3.5853   34.8197 H         1 UNK         0.0300 
     46 H46       -10.1970   -6.6106   35.7692 H         1 UNK         0.0300 
     47 H47       -10.1453   -6.5707   37.5260 H         1 UNK         0.0300 
     48 H48        -8.7722   -7.2247   36.5962 H         1 UNK         0.0300 
@<TRIPOS>BOND
     1    1    4 ar   
     2    1    8 ar   
     3    1   26 1    
     4    2    5 ar   
     5    2    9 ar   
     6    2   27 1    
     7    3    6 ar   
     8    3    9 ar   
     9    3   28 1    
    10    4   11 ar   
    11    4   29 1    
    12    5   10 ar   
    13    5   30 1    
    14    6   10 ar   
    15    6   31 1    
    16    7    8 ar   
    17    7   12 ar   
    18    7   32 1    
    19    8   13 1    
    20    9   17 1    
    21   10   23 1    
    22   11   12 ar   
    23   11   24 1    
    24   12   25 1    
    25   13   21 am   BACKBONE|DICT|INTERRES
    26   13   22 2    
    27   14   15 1    
    28   14   17 1    
    29   14   33 1    
    30   14   34 1    
    31   15   21 1    
    32   15   35 1    
    33   15   36 1    
    34   16   17 1    
    35   16   21 1    
    36   16   37 1    
    37   16   38 1    
    38   17   39 1    
    39   18   23 1    
    40   18   40 1    
    41   18   41 1    
    42   18   42 1    
    43   19   24 1    
    44   19   43 1    
    45   19   44 1    
    46   19   45 1    
    47   20   25 1    
    48   20   46 1    
    49   20   47 1    
    50   20   48 1    
@<TRIPOS>SUBSTRUCTURE
     1 UNK         1 GROUP             0       ****    0 ROOT    
@<TRIPOS>MOLECULE
ZINC38566686_96
52   54    1
SMALL
USER_CHARGES


@<TRIPOS>ATOM
      1 C1         -3.0228   -9.4072   36.7074 C.ar      1 UNK        -0.1150 
      2 C2         -5.2212  -10.3462   37.1587 C.ar      1 UNK        -0.1150 
      3 C3         -2.9213  -10.2097   35.5550 C.ar      1 UNK        -0.1150 
      4 C4         -5.1180  -11.1483   36.0055 C.ar      1 UNK        -0.1150 
      5 C5         -6.7020   -3.8456   39.7011 C.ar      1 UNK        -0.1150 
      6 C6         -7.8832   -5.6618   38.6002 C.ar      1 UNK        -0.1150 
      7 C7         -6.9818   -5.2196   39.5898 C.ar      1 UNK        -0.1150 
      8 C8         -4.1746   -9.4699   37.5183 C.ar      1 UNK        -0.1150 
      9 C9         -3.9615  -11.0863   35.1896 C.ar      1 UNK         0.0850 
     10 C10        -7.2646   -2.9176   38.7941 C.ar      1 UNK         0.0850 
     11 C11        -8.4587   -4.7566   37.6747 C.ar      1 UNK         0.0850 
     12 C12        -8.1188   -3.3757   37.7635 C.ar      1 UNK         0.0850 
     13 C13        -6.3728   -6.1766   40.5757 C.2       1 UNK         0.6150 
     14 C14        -4.5193   -9.3349   40.0679 C.3       1 UNK        -0.1200 
     15 C15        -5.1140   -8.2614   40.9843 C.3       1 UNK        -0.0500 
     16 C16        -5.4210   -7.5719   38.7038 C.3       1 UNK        -0.0500 
     17 C17        -4.2814   -8.5914   38.7571 C.3       1 UNK         0.0550 
     18 C18        -4.8050  -12.7307   33.6585 C.3       1 UNK         0.1100 
     19 C19        -6.2433   -1.0531   39.9238 C.3       1 UNK         0.1100 
     20 C20        -9.7226   -6.5354   36.6350 C.3       1 UNK         0.1100 
     21 C21        -8.7839   -2.7303   35.5440 C.3       1 UNK         0.1100 
     22 N22        -5.7331   -7.2701   40.1023 N.am      1 UNK        -0.1400 
     23 O23        -6.4405   -5.9246   41.7777 O.2       1 UNK        -0.5000 
     24 O24        -3.7766  -11.8314   34.0458 O.3       1 UNK        -0.2850 
     25 O25        -7.0130   -1.5612   38.8446 O.3       1 UNK        -0.2850 
     26 O26        -9.3590   -5.1648   36.7098 O.3       1 UNK        -0.2850 
     27 O27        -8.6090   -2.4038   36.9146 O.3       1 UNK        -0.2850 
     28 H28        -2.2087   -8.7432   36.9601 H         1 UNK         0.1150 
     29 H29        -6.1131  -10.4089   37.7645 H         1 UNK         0.1150 
     30 H30        -2.0349  -10.1535   34.9401 H         1 UNK         0.1150 
     31 H31        -5.9416  -11.8039   35.7683 H         1 UNK         0.1150 
     32 H32        -6.0416   -3.5273   40.4940 H         1 UNK         0.1150 
     33 H33        -8.1331   -6.7102   38.5795 H         1 UNK         0.1150 
     34 H34        -3.6119   -9.7889   40.4681 H         1 UNK         0.0600 
     35 H35        -5.2532  -10.1302   39.9348 H         1 UNK         0.0600 
     36 H36        -5.8367   -8.6820   41.6857 H         1 UNK         0.0600 
     37 H37        -4.3288   -7.7763   41.5669 H         1 UNK         0.0600 
     38 H38        -5.1358   -6.6901   38.1273 H         1 UNK         0.0600 
     39 H39        -6.3050   -8.0087   38.2399 H         1 UNK         0.0600 
     40 H40        -3.3486   -8.0346   38.8665 H         1 UNK         0.0600 
     41 H41        -4.5075  -13.2455   32.7451 H         1 UNK         0.0300 
     42 H42        -5.7376  -12.2043   33.4506 H         1 UNK         0.0300 
     43 H43        -4.9791  -13.4896   34.4226 H         1 UNK         0.0300 
     44 H44        -6.1900    0.0326   39.8458 H         1 UNK         0.0300 
     45 H45        -5.2220   -1.4353   39.9000 H         1 UNK         0.0300 
     46 H46        -6.6985   -1.2915   40.8862 H         1 UNK         0.0300 
     47 H47       -10.4332   -6.6724   35.8199 H         1 UNK         0.0300 
     48 H48       -10.2082   -6.8705   37.5526 H         1 UNK         0.0300 
     49 H49        -8.8587   -7.1682   36.4268 H         1 UNK         0.0300 
     50 H50        -8.6963   -1.8217   34.9485 H         1 UNK         0.0300 
     51 H51        -9.7767   -3.1416   35.3611 H         1 UNK         0.0300 
     52 H52        -8.0282   -3.4312   35.1856 H         1 UNK         0.0300 
@<TRIPOS>BOND
     1    1    3 ar   
     2    1    8 ar   
     3    1   28 1    
     4    2    4 ar   
     5    2    8 ar   
     6    2   29 1    
     7    3    9 ar   
     8    3   30 1    
     9    4    9 ar   
    10    4   31 1    
    11    5    7 ar   
    12    5   10 ar   
    13    5   32 1    
    14    6    7 ar   
    15    6   11 ar   
    16    6   33 1    
    17    7   13 1    
    18    8   17 1    
    19    9   24 1    
    20   10   12 ar   
    21   10   25 1    
    22   11   12 ar   
    23   11   26 1    
    24   12   27 1    
    25   13   22 am   BACKBONE|DICT|INTERRES
    26   13   23 2    
    27   14   15 1    
    28   14   17 1    
    29   14   34 1    
    30   14   35 1    
    31   15   22 1    
    32   15   36 1    
    33   15   37 1    
    34   16   17 1    
    35   16   22 1    
    36   16   38 1    
    37   16   39 1    
    38   17   40 1    
    39   18   24 1    
    40   18   41 1    
    41   18   42 1    
    42   18   43 1    
    43   19   25 1    
    44   19   44 1    
    45   19   45 1    
    46   19   46 1    
    47   20   26 1    
    48   20   47 1    
    49   20   48 1    
    50   20   49 1    
    51   21   27 1    
    52   21   50 1    
    53   21   51 1    
    54   21   52 1    
@<TRIPOS>SUBSTRUCTURE
     1 UNK         1 GROUP             0       ****    0 ROOT    
@<TRIPOS>MOLECULE
ZINC38567242_55
48   50    1
SMALL
USER_CHARGES


@<TRIPOS>ATOM
      1 C1         -3.1811  -10.6403   35.1862 C.ar      1 UNK        -0.1150 
      2 C2         -2.6782   -9.5086   35.8555 C.ar      1 UNK        -0.1150 
      3 C3         -4.3129  -11.3089   35.6902 C.ar      1 UNK        -0.1150 
      4 C4         -3.3080   -9.0446   37.0265 C.ar      1 UNK        -0.1150 
      5 C5         -4.9426  -10.8453   36.8615 C.ar      1 UNK        -0.1150 
      6 C6         -8.1326   -5.7166   38.8665 C.ar      1 UNK        -0.1150 
      7 C7         -6.5240   -3.9274   39.2488 C.ar      1 UNK        -0.1150 
      8 C8         -6.9619   -5.2435   39.4949 C.ar      1 UNK        -0.1150 
      9 C9         -4.4452   -9.7097   37.5365 C.ar      1 UNK        -0.1150 
     10 C10        -8.8354   -4.9032   37.9464 C.ar      1 UNK         0.0850 
     11 C11        -7.2146   -3.0916   38.3386 C.ar      1 UNK         0.0850 
     12 C12        -8.3601   -3.5997   37.6783 C.ar      1 UNK         0.0850 
     13 C13        -6.2163   -6.0932   40.4827 C.2       1 UNK         0.6150 
     14 C14        -4.2624   -9.1734   40.0459 C.3       1 UNK        -0.1200 
     15 C15        -4.9907   -8.1832   40.9579 C.3       1 UNK        -0.0500 
     16 C16        -5.7001   -7.7931   38.6943 C.3       1 UNK        -0.0500 
     17 C17        -5.1367   -9.2132   38.7982 C.3       1 UNK         0.0550 
     18 C18       -10.4902   -6.6039   37.5446 C.3       1 UNK         0.1100 
     19 C19        -5.7324   -1.2438   38.7666 C.3       1 UNK         0.1100 
     20 C20        -8.3943   -2.6088   35.5568 C.3       1 UNK         0.1100 
     21 N21        -5.7399   -7.2900   40.0707 N.am      1 UNK        -0.1400 
     22 O22        -6.0373   -5.6674   41.6225 O.2       1 UNK        -0.5000 
     23 O23        -9.9704   -5.3109   37.2759 O.3       1 UNK        -0.2850 
     24 O24        -6.8378   -1.7924   38.0647 O.3       1 UNK        -0.2850 
     25 O25        -9.0608   -2.8219   36.7906 O.3       1 UNK        -0.2850 
     26 H26        -2.6988  -10.9956   34.2870 H         1 UNK         0.1150 
     27 H27        -1.8088   -8.9959   35.4702 H         1 UNK         0.1150 
     28 H28        -4.6984  -12.1784   35.1779 H         1 UNK         0.1150 
     29 H29        -2.9122   -8.1744   37.5295 H         1 UNK         0.1150 
     30 H30        -5.8099  -11.3692   37.2364 H         1 UNK         0.1150 
     31 H31        -8.4789   -6.7090   39.1096 H         1 UNK         0.1150 
     32 H32        -5.6499   -3.5804   39.7791 H         1 UNK         0.1150 
     33 H33        -3.2751   -8.7751   39.8100 H         1 UNK         0.0600 
     34 H34        -4.1213  -10.1554   40.4988 H         1 UNK         0.0600 
     35 H35        -5.6955   -8.7013   41.6098 H         1 UNK         0.0600 
     36 H36        -4.2873   -7.6408   41.5928 H         1 UNK         0.0600 
     37 H37        -5.0416   -7.1423   38.1173 H         1 UNK         0.0600 
     38 H38        -6.6689   -7.8084   38.1975 H         1 UNK         0.0600 
     39 H39        -5.9740   -9.8797   39.0141 H         1 UNK         0.0600 
     40 H40       -11.3857   -6.7615   36.9437 H         1 UNK         0.0300 
     41 H41       -10.7744   -6.7097   38.5925 H         1 UNK         0.0300 
     42 H42        -9.7754   -7.3843   37.2807 H         1 UNK         0.0300 
     43 H43        -5.5859   -0.2104   38.4528 H         1 UNK         0.0300 
     44 H44        -4.8122   -1.7872   38.5484 H         1 UNK         0.0300 
     45 H45        -5.9050   -1.2392   39.8438 H         1 UNK         0.0300 
     46 H46        -9.0716   -2.1117   34.8630 H         1 UNK         0.0300 
     47 H47        -8.0907   -3.5543   35.1053 H         1 UNK         0.0300 
     48 H48        -7.5138   -1.9765   35.6680 H         1 UNK         0.0300 
@<TRIPOS>BOND
     1    1    2 ar   
     2    1    3 ar   
     3    1   26 1    
     4    2    4 ar   
     5    2   27 1    
     6    3    5 ar   
     7    3   28 1    
     8    4    9 ar   
     9    4   29 1    
    10    5    9 ar   
    11    5   30 1    
    12    6    8 ar   
    13    6   10 ar   
    14    6   31 1    
    15    7    8 ar   
    16    7   11 ar   
    17    7   32 1    
    18    8   13 1    
    19    9   17 1    
    20   10   12 ar   
    21   10   23 1    
    22   11   12 ar   
    23   11   24 1    
    24   12   25 1    
    25   13   21 am   BACKBONE|DICT|INTERRES
    26   13   22 2    
    27   14   15 1    
    28   14   17 1    
    29   14   33 1    
    30   14   34 1    
    31   15   21 1    
    32   15   35 1    
    33   15   36 1    
    34   16   17 1    
    35   16   21 1    
    36   16   37 1    
    37   16   38 1    
    38   17   39 1    
    39   18   23 1    
    40   18   40 1    
    41   18   41 1    
    42   18   42 1    
    43   19   24 1    
    44   19   43 1    
    45   19   44 1    
    46   19   45 1    
    47   20   25 1    
    48   20   46 1    
    49   20   47 1    
    50   20   48 1    
@<TRIPOS>SUBSTRUCTURE
     1 UNK         1 GROUP             0       ****    0 ROOT    
@<TRIPOS>MOLECULE
ZINC38924458_232
45   47    1
SMALL
USER_CHARGES


@<TRIPOS>ATOM
      1 C1         -5.0982  -10.9162   35.5484 C.ar      1 UNK        -0.1490 
      2 C2         -5.7918  -12.1077   35.8978 C.ar      1 UNK        -0.1490 
      3 C3         -7.5831   -4.3200   39.5629 C.ar      1 UNK        -0.1150 
      4 C4         -7.6657   -6.0084   37.8074 C.ar      1 UNK        -0.1150 
      5 C5         -4.9581  -10.1735   36.6872 C.ar      1 UNK        -0.1630 
      6 C6         -6.0535  -12.0551   37.2386 C.ar      1 UNK        -0.1630 
      7 C7         -5.9608  -10.0302   41.4855 C.2       1 UNK        -0.3376 
      8 C8         -7.1874   -5.5812   39.0621 C.ar      1 UNK         0.0850 
      9 C9         -8.4649   -3.4953   38.8227 C.ar      1 UNK         0.0850 
     10 C10        -8.5480   -5.2010   37.0500 C.ar      1 UNK         0.0850 
     11 C11        -8.9342   -3.9418   37.5674 C.ar      1 UNK         0.0850 
     12 C12        -5.3888   -8.9677   40.8302 C.2       1 UNK         0.1693 
     13 C13        -5.6161  -10.4241   39.0768 C.2       1 UNK         0.4234 
     14 C14        -5.9317   -6.5045   41.0335 C.2       1 UNK         0.5000 
     15 C15        -8.4983   -1.8073   40.5365 C.3       1 UNK         0.1100 
     16 C16        -8.7254   -6.8560   35.3085 C.3       1 UNK         0.1100 
     17 C17        -9.2031   -2.4922   35.7534 C.3       1 UNK         0.1100 
     18 C18        -4.9788   -7.6431   41.4258 C.3       1 UNK        -0.0050 
     19 N19        -5.1890   -9.2156   39.4649 N.2       1 UNK        -0.4803 
     20 N20        -5.5453  -10.8652   37.7355 N.pl3     1 UNK        -0.0445 
     21 N21        -6.2975   -6.4585   39.7396 N.am      1 UNK        -0.3850 
     22 O22        -6.2910   -5.6991   41.8906 O.2       1 UNK        -0.5000 
     23 O23        -8.8933   -2.2537   39.2480 O.3       1 UNK        -0.2850 
     24 O24        -9.0661   -5.5786   35.8270 O.3       1 UNK        -0.2850 
     25 O25        -9.7977   -3.1374   36.8676 O.3       1 UNK        -0.2850 
     26 S26        -6.2866  -11.3632   40.4097 S.3       1 UNK         0.0010 
     27 H27        -4.7380  -10.6349   34.5688 H         1 UNK         0.1180 
     28 H28        -6.0678  -12.9179   35.2374 H         1 UNK         0.1180 
     29 H29        -7.2020   -3.9822   40.5119 H         1 UNK         0.1150 
     30 H30        -7.3509   -6.9730   37.4409 H         1 UNK         0.1150 
     31 H31        -4.4899   -9.2136   36.8539 H         1 UNK         0.1550 
     32 H32        -6.5588  -12.7605   37.8828 H         1 UNK         0.1550 
     33 H33        -6.2197  -10.1099   42.5317 H         1 UNK         0.2317 
     34 H34        -8.9500   -0.8351   40.7334 H         1 UNK         0.0300 
     35 H35        -7.4163   -1.6866   40.6026 H         1 UNK         0.0300 
     36 H36        -8.8349   -2.4911   41.3169 H         1 UNK         0.0300 
     37 H37        -9.2322   -7.0022   34.3546 H         1 UNK         0.0300 
     38 H38        -9.0455   -7.6572   35.9763 H         1 UNK         0.0300 
     39 H39        -7.6530   -6.9409   35.1275 H         1 UNK         0.0300 
     40 H40        -9.9023   -1.7648   35.3419 H         1 UNK         0.0300 
     41 H41        -8.9522   -3.1965   34.9602 H         1 UNK         0.0300 
     42 H42        -8.2980   -1.9570   36.0443 H         1 UNK         0.0300 
     43 H43        -4.9435   -7.7081   42.5138 H         1 UNK         0.0600 
     44 H44        -3.9723   -7.3736   41.1052 H         1 UNK         0.0600 
     45 H45        -5.9481   -7.2427   39.2013 H         1 UNK         0.3000 
@<TRIPOS>BOND
     1    1    2 ar   
     2    1    5 ar   
     3    1   27 1    
     4    2    6 ar   
     5    2   28 1    
     6    3    8 ar   
     7    3    9 ar   
     8    3   29 1    
     9    4    8 ar   
    10    4   10 ar   
    11    4   30 1    
    12    5   20 ar   
    13    5   31 1    
    14    6   20 ar   
    15    6   32 1    
    16    7   12 2    
    17    7   26 1    
    18    7   33 1    
    19    8   21 1    
    20    9   11 ar   
    21    9   23 1    
    22   10   11 ar   
    23   10   24 1    
    24   11   25 1    
    25   12   18 1    
    26   12   19 1    
    27   13   19 2    
    28   13   20 1    
    29   13   26 1    
    30   14   18 1    
    31   14   21 am   BACKBONE|DICT|INTERRES
    32   14   22 2    
    33   15   23 1    
    34   15   34 1    
    35   15   35 1    
    36   15   36 1    
    37   16   24 1    
    38   16   37 1    
    39   16   38 1    
    40   16   39 1    
    41   17   25 1    
    42   17   40 1    
    43   17   41 1    
    44   17   42 1    
    45   18   43 1    
    46   18   44 1    
    47   21   45 1    
@<TRIPOS>SUBSTRUCTURE
     1 UNK         1 GROUP             0       ****    0 ROOT    
@<TRIPOS>MOLECULE
ZINC39255705_17
34   35    1
SMALL
USER_CHARGES


@<TRIPOS>ATOM
      1 C1         -5.6505   -9.7442   41.3569 C.ar      1 UNK         0.2270 
      2 C2         -6.4018   -3.8532   39.4752 C.ar      1 UNK        -0.1150 
      3 C3         -6.8994   -3.0473   38.4374 C.ar      1 UNK        -0.1150 
      4 C4         -5.9327   -8.3836   41.5556 C.ar      1 UNK        -0.4470 
      5 C5         -5.3814  -10.1922   40.0538 C.ar      1 UNK        -0.4470 
      6 C6         -7.6365   -5.7386   38.5743 C.ar      1 UNK        -0.1150 
      7 C7         -6.7524   -5.2163   39.5455 C.ar      1 UNK        -0.1150 
      8 C8         -7.7538   -3.5689   37.4463 C.ar      1 UNK         0.0850 
      9 C9         -8.1436   -4.9407   37.5151 C.ar      1 UNK         0.0850 
     10 C10        -5.9435   -7.5075   40.4467 C.ar      1 UNK         0.3700 
     11 C11        -5.3987   -9.2573   39.0062 C.ar      1 UNK         0.3700 
     12 C12        -6.2223   -6.0470   40.6734 C.2       1 UNK         0.7000 
     13 C13        -5.1126   -9.6776   37.5819 C.3       1 UNK        -0.0650 
     14 C14        -8.7441   -3.0816   35.2823 C.3       1 UNK         0.1100 
     15 C15        -9.3255   -6.8404   36.5975 C.3       1 UNK         0.1100 
     16 N16        -5.6732   -7.9543   39.1944 N.ar      1 UNK        -0.6780 
     17 O17        -6.0169   -5.5317   41.7760 O.2       1 UNK        -0.4700 
     18 O18        -8.1430   -2.6482   36.4921 O.3       1 UNK        -0.2850 
     19 O19        -9.0131   -5.4548   36.5731 O.3       1 UNK        -0.2850 
     20 H20        -5.6381  -10.4316   42.1902 H         1 UNK         0.0650 
     21 H21        -5.7460   -3.4198   40.2178 H         1 UNK         0.1150 
     22 H22        -6.6161   -2.0059   38.3923 H         1 UNK         0.1150 
     23 H23        -6.1341   -8.0081   42.5493 H         1 UNK         0.1550 
     24 H24        -5.1597  -11.2329   39.8676 H         1 UNK         0.1550 
     25 H25        -7.9220   -6.7744   38.6650 H         1 UNK         0.1150 
     26 H26        -6.0259  -10.0330   37.1058 H         1 UNK         0.0600 
     27 H27        -4.7246   -8.8407   36.9998 H         1 UNK         0.0600 
     28 H28        -4.3731  -10.4778   37.5567 H         1 UNK         0.0600 
     29 H29        -8.7842   -2.2441   34.5860 H         1 UNK         0.0300 
     30 H30        -9.7695   -3.4156   35.4433 H         1 UNK         0.0300 
     31 H31        -8.1658   -3.8734   34.8039 H         1 UNK         0.0300 
     32 H32        -9.9717   -7.0757   35.7519 H         1 UNK         0.0300 
     33 H33        -9.8637   -7.1121   37.5063 H         1 UNK         0.0300 
     34 H34        -8.4291   -7.4557   36.5066 H         1 UNK         0.0300 
@<TRIPOS>BOND
     1    1    4 ar   
     2    1    5 ar   
     3    1   20 1    
     4    2    3 ar   
     5    2    7 ar   
     6    2   21 1    
     7    3    8 ar   
     8    3   22 1    
     9    4   10 ar   
    10    4   23 1    
    11    5   11 ar   
    12    5   24 1    
    13    6    7 ar   
    14    6    9 ar   
    15    6   25 1    
    16    7   12 1    
    17    8    9 ar   
    18    8   18 1    
    19    9   19 1    
    20   10   12 1    
    21   10   16 ar   
    22   11   13 1    
    23   11   16 ar   
    24   12   17 2    
    25   13   26 1    
    26   13   27 1    
    27   13   28 1    
    28   14   18 1    
    29   14   29 1    
    30   14   30 1    
    31   14   31 1    
    32   15   19 1    
    33   15   32 1    
    34   15   33 1    
    35   15   34 1    
@<TRIPOS>SUBSTRUCTURE
     1 UNK         1 GROUP             0       ****    0 ROOT    
@<TRIPOS>MOLECULE
ZINC39353835_257
49   52    1
SMALL
USER_CHARGES


@<TRIPOS>ATOM
      1 C1         -7.5893   -6.2412   38.1665 C.ar      1 UNK        -0.1150 
      2 C2         -7.9066   -5.5468   36.9840 C.ar      1 UNK        -0.1150 
      3 C3         -7.1606   -4.1246   39.2762 C.ar      1 UNK        -0.1150 
      4 C4         -7.1971   -5.5356   39.3278 C.ar      1 UNK        -0.1150 
      5 C5         -7.8544   -4.1405   36.9243 C.ar      1 UNK         0.0850 
      6 C6         -7.4792   -3.4264   38.0959 C.ar      1 UNK         0.2200 
      7 C7         -5.4285  -10.4883   36.1008 C.2       1 UNK        -0.1150 
      8 C8         -4.4814  -10.2100   35.2136 C.2       1 UNK         0.1225 
      9 C9         -6.8449   -6.2177   40.6092 C.2       1 UNK         0.5850 
     10 C10        -5.1498  -10.2772   38.6447 C.2       1 UNK         0.5000 
     11 C11        -6.2685   -9.8881   41.9197 C.3       1 UNK        -0.1200 
     12 C12        -2.8184  -11.4616   33.6463 C.3       1 UNK        -0.1200 
     13 C13        -4.0066  -12.3739   33.8414 C.3       1 UNK        -0.1200 
     14 C14        -6.5935   -8.3836   41.9881 C.3       1 UNK        -0.1200 
     15 C15        -4.9806  -10.1430   41.1141 C.3       1 UNK        -0.0500 
     16 C16        -5.2613   -8.0748   39.8651 C.3       1 UNK        -0.0500 
     17 C17        -5.3204   -9.5788   37.2820 C.3       1 UNK         0.0625 
     18 C18        -4.1828  -10.8753   33.9230 C.3       1 UNK        -0.0600 
     19 C19        -6.5918   -7.7400   40.5801 C.3       1 UNK        -0.0600 
     20 C20        -8.1354   -2.1776   35.5423 C.3       1 UNK         0.1100 
     21 N21        -3.7448   -9.1381   35.7127 N.2       1 UNK        -0.1225 
     22 N22        -4.1799   -8.7563   36.8254 N.2       1 UNK        -0.1225 
     23 N23        -5.1104   -9.5356   39.7814 N.am      1 UNK        -0.1400 
     24 O24        -6.7170   -5.6043   41.6684 O.2       1 UNK        -0.4700 
     25 O25        -5.0804  -11.5069   38.6685 O.2       1 UNK        -0.5000 
     26 O26        -8.1843   -3.5867   35.7038 O.3       1 UNK        -0.2850 
     27 F27        -7.4130   -2.0740   38.1258 F         1 UNK        -0.2200 
     28 H28        -7.6586   -7.3170   38.1530 H         1 UNK         0.1150 
     29 H29        -8.1978   -6.0987   36.1019 H         1 UNK         0.1150 
     30 H30        -6.8779   -3.5559   40.1511 H         1 UNK         0.1150 
     31 H31        -6.1617  -11.2775   36.0293 H         1 UNK         0.1150 
     32 H32        -6.1664  -10.2946   42.9268 H         1 UNK         0.0600 
     33 H33        -7.0983  -10.4238   41.4560 H         1 UNK         0.0600 
     34 H34        -2.0793  -11.4202   34.4444 H         1 UNK         0.0600 
     35 H35        -2.4221  -11.3558   32.6383 H         1 UNK         0.0600 
     36 H36        -4.4035  -12.8798   32.9635 H         1 UNK         0.0600 
     37 H37        -4.0528  -12.9427   34.7685 H         1 UNK         0.0600 
     38 H38        -7.5588   -8.2319   42.4732 H         1 UNK         0.0600 
     39 H39        -5.8536   -7.8912   42.6220 H         1 UNK         0.0600 
     40 H40        -4.1212   -9.7076   41.6259 H         1 UNK         0.0600 
     41 H41        -4.7824  -11.2157   41.0714 H         1 UNK         0.0600 
     42 H42        -5.2087   -7.5782   38.8988 H         1 UNK         0.0600 
     43 H43        -4.4224   -7.6677   40.4328 H         1 UNK         0.0600 
     44 H44        -6.2235   -8.9717   37.3173 H         1 UNK         0.0600 
     45 H45        -4.6851  -10.3926   33.0868 H         1 UNK         0.0600 
     46 H46        -7.4147   -8.1942   40.0310 H         1 UNK         0.0600 
     47 H47        -8.4071   -1.9278   34.5169 H         1 UNK         0.0300 
     48 H48        -7.1319   -1.7876   35.7168 H         1 UNK         0.0300 
     49 H49        -8.8463   -1.6743   36.1984 H         1 UNK         0.0300 
@<TRIPOS>BOND
     1    1    2 ar   
     2    1    4 ar   
     3    1   28 1    
     4    2    5 ar   
     5    2   29 1    
     6    3    4 ar   
     7    3    6 ar   
     8    3   30 1    
     9    4    9 1    
    10    5    6 ar   
    11    5   26 1    
    12    6   27 1    
    13    7    8 2    
    14    7   17 1    
    15    7   31 1    
    16    8   18 1    
    17    8   21 1    
    18    9   19 1    
    19    9   24 2    
    20   10   17 1    
    21   10   23 am   BACKBONE|DICT|INTERRES
    22   10   25 2    
    23   11   14 1    
    24   11   15 1    
    25   11   32 1    
    26   11   33 1    
    27   12   13 1    
    28   12   18 1    
    29   12   34 1    
    30   12   35 1    
    31   13   18 1    
    32   13   36 1    
    33   13   37 1    
    34   14   19 1    
    35   14   38 1    
    36   14   39 1    
    37   15   23 1    
    38   15   40 1    
    39   15   41 1    
    40   16   19 1    
    41   16   23 1    
    42   16   42 1    
    43   16   43 1    
    44   17   22 1    
    45   17   44 1    
    46   18   45 1    
    47   19   46 1    
    48   20   26 1    
    49   20   47 1    
    50   20   48 1    
    51   20   49 1    
    52   21   22 2    
@<TRIPOS>SUBSTRUCTURE
     1 UNK         1 GROUP             0       ****    0 ROOT    
@<TRIPOS>MOLECULE
ZINC39388421_257
55   58    1
SMALL
USER_CHARGES


@<TRIPOS>ATOM
      1 C1         -7.4454   -4.0728   39.5986 C.ar      1 UNK        -0.1150 
      2 C2         -7.6536   -6.1531   38.3572 C.ar      1 UNK        -0.1150 
      3 C3         -7.3089   -5.4787   39.5530 C.ar      1 UNK        -0.1150 
      4 C4         -7.8906   -3.3488   38.4738 C.ar      1 UNK        -0.1150 
      5 C5         -8.0884   -5.4374   37.2232 C.ar      1 UNK        -0.1150 
      6 C6         -8.1915   -4.0303   37.2737 C.ar      1 UNK         0.0850 
      7 C7         -5.5392  -10.3696   36.0908 C.2       1 UNK        -0.1150 
      8 C8         -4.6371  -10.0627   35.1671 C.2       1 UNK         0.1225 
      9 C9         -6.8238   -6.1951   40.7736 C.2       1 UNK         0.5850 
     10 C10        -5.1444  -10.1763   38.6157 C.2       1 UNK         0.5000 
     11 C11        -6.0979   -9.8871   41.9401 C.3       1 UNK        -0.1200 
     12 C12        -3.0107  -11.3167   33.5653 C.3       1 UNK        -0.1200 
     13 C13        -4.2008  -12.2227   33.7763 C.3       1 UNK        -0.1200 
     14 C14        -6.4593   -8.3951   42.0631 C.3       1 UNK        -0.1200 
     15 C15        -4.8419  -10.0789   41.0713 C.3       1 UNK        -0.0500 
     16 C16        -5.2455   -7.9964   39.8808 C.3       1 UNK        -0.0500 
     17 C17        -5.4038   -9.4661   37.2735 C.3       1 UNK         0.0625 
     18 C18        -4.3665  -10.7231   33.8680 C.3       1 UNK        -0.0600 
     19 C19        -6.5429   -7.7104   40.6757 C.3       1 UNK        -0.0600 
     20 C20        -8.0440   -1.8428   38.5712 C.3       1 UNK        -0.0650 
     21 C21        -8.4420   -6.1852   35.9516 C.3       1 UNK        -0.0650 
     22 C22        -7.5335   -2.8705   35.3635 C.3       1 UNK         0.1100 
     23 N23        -3.9135   -8.9695   35.6386 N.2       1 UNK        -0.1225 
     24 N24        -4.3111   -8.6060   36.7714 N.2       1 UNK        -0.1225 
     25 N25        -5.0597   -9.4510   39.7602 N.am      1 UNK        -0.1400 
     26 O26        -6.6200   -5.6159   41.8413 O.2       1 UNK        -0.4700 
     27 O27        -5.0445  -11.4044   38.6169 O.2       1 UNK        -0.5000 
     28 O28        -8.6061   -3.3380   36.1662 O.3       1 UNK        -0.2850 
     29 H29        -7.2066   -3.5410   40.5096 H         1 UNK         0.1150 
     30 H30        -7.5911   -7.2260   38.2866 H         1 UNK         0.1150 
     31 H31        -6.2482  -11.1827   36.0488 H         1 UNK         0.1150 
     32 H32        -5.9372  -10.3151   42.9304 H         1 UNK         0.0600 
     33 H33        -6.9323  -10.4354   41.5001 H         1 UNK         0.0600 
     34 H34        -2.2579  -11.2857   34.3511 H         1 UNK         0.0600 
     35 H35        -2.6305  -11.2079   32.5515 H         1 UNK         0.0600 
     36 H36        -4.6142  -12.7228   32.9029 H         1 UNK         0.0600 
     37 H37        -4.2350  -12.7957   34.7016 H         1 UNK         0.0600 
     38 H38        -7.4028   -8.2819   42.5989 H         1 UNK         0.0600 
     39 H39        -5.7013   -7.9017   42.6746 H         1 UNK         0.0600 
     40 H40        -3.9755   -9.6214   41.5509 H         1 UNK         0.0600 
     41 H41        -4.6064  -11.1422   40.9970 H         1 UNK         0.0600 
     42 H42        -5.2588   -7.4826   38.9221 H         1 UNK         0.0600 
     43 H43        -4.3880   -7.5757   40.4091 H         1 UNK         0.0600 
     44 H44        -6.3223   -8.8882   37.3592 H         1 UNK         0.0600 
     45 H45        -4.8806  -10.2338   33.0429 H         1 UNK         0.0600 
     46 H46        -7.3860   -8.1618   40.1551 H         1 UNK         0.0600 
     47 H47        -7.1287   -1.3478   38.2478 H         1 UNK         0.0600 
     48 H48        -8.8663   -1.4927   37.9464 H         1 UNK         0.0600 
     49 H49        -8.2552   -1.5381   39.5964 H         1 UNK         0.0600 
     50 H50        -9.3362   -5.7601   35.4944 H         1 UNK         0.0600 
     51 H51        -7.6245   -6.1166   35.2341 H         1 UNK         0.0600 
     52 H52        -8.6376   -7.2388   36.1498 H         1 UNK         0.0600 
     53 H53        -7.9296   -2.3806   34.4743 H         1 UNK         0.0300 
     54 H54        -6.8935   -3.6912   35.0369 H         1 UNK         0.0300 
     55 H55        -6.9198   -2.1462   35.8995 H         1 UNK         0.0300 
@<TRIPOS>BOND
     1    1    3 ar   
     2    1    4 ar   
     3    1   29 1    
     4    2    3 ar   
     5    2    5 ar   
     6    2   30 1    
     7    3    9 1    
     8    4    6 ar   
     9    4   20 1    
    10    5    6 ar   
    11    5   21 1    
    12    6   28 1    
    13    7    8 2    
    14    7   17 1    
    15    7   31 1    
    16    8   18 1    
    17    8   23 1    
    18    9   19 1    
    19    9   26 2    
    20   10   17 1    
    21   10   25 am   BACKBONE|DICT|INTERRES
    22   10   27 2    
    23   11   14 1    
    24   11   15 1    
    25   11   32 1    
    26   11   33 1    
    27   12   13 1    
    28   12   18 1    
    29   12   34 1    
    30   12   35 1    
    31   13   18 1    
    32   13   36 1    
    33   13   37 1    
    34   14   19 1    
    35   14   38 1    
    36   14   39 1    
    37   15   25 1    
    38   15   40 1    
    39   15   41 1    
    40   16   19 1    
    41   16   25 1    
    42   16   42 1    
    43   16   43 1    
    44   17   24 1    
    45   17   44 1    
    46   18   45 1    
    47   19   46 1    
    48   20   47 1    
    49   20   48 1    
    50   20   49 1    
    51   21   50 1    
    52   21   51 1    
    53   21   52 1    
    54   22   28 1    
    55   22   53 1    
    56   22   54 1    
    57   22   55 1    
    58   23   24 2    
@<TRIPOS>SUBSTRUCTURE
     1 UNK         1 GROUP             0       ****    0 ROOT    
@<TRIPOS>MOLECULE
ZINC39582679_102
47   49    1
SMALL
USER_CHARGES


@<TRIPOS>ATOM
      1 C1         -3.0678  -11.3731   35.7999 C.ar      1 UNK        -0.1399 
      2 C2         -4.2175  -10.7575   35.2728 C.ar      1 UNK        -0.1399 
      3 C3         -2.8798  -11.4260   37.1946 C.ar      1 UNK        -0.3245 
      4 C4         -5.1725  -10.1976   36.1434 C.ar      1 UNK        -0.3245 
      5 C5         -8.7125   -6.0660   38.5098 C.ar      1 UNK        -0.1150 
      6 C6         -7.1150   -4.4267   39.3467 C.ar      1 UNK        -0.1150 
      7 C7         -7.5699   -5.7615   39.2856 C.ar      1 UNK        -0.1150 
      8 C8         -3.8270  -10.8692   38.0774 C.ar      1 UNK         0.4087 
      9 C9         -4.9965  -10.2423   37.5410 C.ar      1 UNK         0.4086 
     10 C10        -9.4006   -5.0511   37.8020 C.ar      1 UNK         0.0850 
     11 C11        -7.7877   -3.3965   38.6477 C.ar      1 UNK         0.0850 
     12 C12        -8.9250   -3.7214   37.8764 C.ar      1 UNK         0.0850 
     13 C13        -4.5577  -10.3801   40.2167 C.ar      1 UNK         0.1160 
     14 C14        -5.7136   -9.7547   39.6876 C.ar      1 UNK         0.1160 
     15 C15        -6.8283   -6.8135   40.0368 C.2       1 UNK         0.6250 
     16 C16        -4.2854  -10.4631   41.7059 C.3       1 UNK        -0.0650 
     17 C17       -11.0314   -6.6048   36.9524 C.3       1 UNK         0.1100 
     18 C18        -6.2642   -1.7137   39.4440 C.3       1 UNK         0.1100 
     19 C19        -9.2661   -2.6641   35.8282 C.3       1 UNK         0.1100 
     20 C20        -6.7875   -9.1396   40.5787 C.3       1 UNK         0.3050 
     21 N21        -3.6214  -10.9351   39.4150 N.ar      1 UNK        -0.5226 
     22 N22        -5.9327   -9.6965   38.3529 N.ar      1 UNK        -0.5225 
     23 O23        -5.7844   -6.5985   40.6563 O.2       1 UNK        -0.4300 
     24 O24       -10.5247   -5.2815   37.0346 O.3       1 UNK        -0.2850 
     25 O25        -7.3929   -2.0742   38.6625 O.3       1 UNK        -0.2850 
     26 O26        -9.5804   -2.7183   37.2093 O.3       1 UNK        -0.2850 
     27 O27        -7.4257   -8.0164   39.9871 O.3       1 UNK        -0.3300 
     28 H28        -2.3297  -11.8040   35.1368 H         1 UNK         0.1615 
     29 H29        -4.3675  -10.7125   34.2025 H         1 UNK         0.1615 
     30 H30        -1.9997  -11.8963   37.6055 H         1 UNK         0.1858 
     31 H31        -6.0553   -9.7225   35.7442 H         1 UNK         0.1858 
     32 H32        -9.0525   -7.0885   38.4615 H         1 UNK         0.1150 
     33 H33        -6.2394   -4.2112   39.9405 H         1 UNK         0.1150 
     34 H34        -5.1230  -10.9281   42.2256 H         1 UNK         0.0600 
     35 H35        -3.3935  -11.0570   41.9112 H         1 UNK         0.0600 
     36 H36        -4.1254   -9.4657   42.1169 H         1 UNK         0.0600 
     37 H37       -11.9174   -6.6107   36.3176 H         1 UNK         0.0300 
     38 H38       -11.3265   -6.9806   37.9331 H         1 UNK         0.0300 
     39 H39       -10.3030   -7.2838   36.5069 H         1 UNK         0.0300 
     40 H40        -6.0959   -0.6404   39.3568 H         1 UNK         0.0300 
     41 H41        -5.3611   -2.2177   39.0972 H         1 UNK         0.0300 
     42 H42        -6.4222   -1.9375   40.4999 H         1 UNK         0.0300 
     43 H43        -9.7818   -1.8201   35.3706 H         1 UNK         0.0300 
     44 H44        -9.5776   -3.5691   35.3057 H         1 UNK         0.0300 
     45 H45        -8.1947   -2.5248   35.6760 H         1 UNK         0.0300 
     46 H46        -7.5454   -9.9004   40.7644 H         1 UNK         0.0300 
     47 H47        -6.3762   -8.8707   41.5522 H         1 UNK         0.0300 
@<TRIPOS>BOND
     1    1    2 ar   
     2    1    3 ar   
     3    1   28 1    
     4    2    4 ar   
     5    2   29 1    
     6    3    8 ar   
     7    3   30 1    
     8    4    9 ar   
     9    4   31 1    
    10    5    7 ar   
    11    5   10 ar   
    12    5   32 1    
    13    6    7 ar   
    14    6   11 ar   
    15    6   33 1    
    16    7   15 1    
    17    8    9 ar   
    18    8   21 ar   
    19    9   22 ar   
    20   10   12 ar   
    21   10   24 1    
    22   11   12 ar   
    23   11   25 1    
    24   12   26 1    
    25   13   14 ar   
    26   13   16 1    
    27   13   21 ar   
    28   14   20 1    
    29   14   22 ar   
    30   15   23 2    
    31   15   27 1    
    32   16   34 1    
    33   16   35 1    
    34   16   36 1    
    35   17   24 1    
    36   17   37 1    
    37   17   38 1    
    38   17   39 1    
    39   18   25 1    
    40   18   40 1    
    41   18   41 1    
    42   18   42 1    
    43   19   26 1    
    44   19   43 1    
    45   19   44 1    
    46   19   45 1    
    47   20   27 1    
    48   20   46 1    
    49   20   47 1    
@<TRIPOS>SUBSTRUCTURE
     1 UNK         1 GROUP             0       ****    0 ROOT    
@<TRIPOS>MOLECULE
ZINC40105471_145
52   54    1
SMALL
USER_CHARGES


@<TRIPOS>ATOM
      1 C1        -15.5488  -25.5082   36.0799 C.ar      1 UNK        -0.4461 
      2 C2        -15.2503  -26.8761   35.9216 C.ar      1 UNK         0.0055 
      3 C3        -20.4691  -18.0148   38.9447 C.ar      1 UNK        -0.1150 
      4 C4        -22.7364  -18.8259   39.2567 C.ar      1 UNK        -0.1150 
      5 C5        -17.0472  -27.4467   37.4588 C.ar      1 UNK        -0.1407 
      6 C6        -21.3503  -19.0109   39.4096 C.ar      1 UNK        -0.1150 
      7 C7        -16.5939  -25.0790   36.9234 C.ar      1 UNK         0.6314 
      8 C8        -16.0013  -27.8594   36.6121 C.ar      1 UNK        -0.0262 
      9 C9        -20.9489  -16.8521   38.3124 C.ar      1 UNK         0.0850 
     10 C10       -23.2484  -17.6718   38.6359 C.ar      1 UNK         0.0850 
     11 C11       -22.3516  -16.6945   38.1197 C.ar      1 UNK         0.0850 
     12 C12       -17.3382  -26.0793   37.6124 C.ar      1 UNK        -0.1027 
     13 C13       -18.0065  -23.7443   38.0178 C.2       1 UNK         0.4008 
     14 C14       -19.5112  -22.1859   39.2165 C.2       1 UNK         0.7661 
     15 C15       -20.3096  -19.9570   41.5003 C.3       1 UNK        -0.1800 
     16 C16       -14.7346  -29.6687   35.6709 C.3       1 UNK         0.1100 
     17 C17       -20.3093  -14.5880   37.7914 C.3       1 UNK         0.1100 
     18 C18       -25.2061  -16.3156   38.7969 C.3       1 UNK         0.1100 
     19 C19       -23.1333  -15.9815   36.0497 C.3       1 UNK         0.1100 
     20 C20       -20.8189  -20.2659   40.0837 C.3       1 UNK         0.2070 
     21 N21       -16.9817  -23.7617   37.1572 N.2       1 UNK        -0.5991 
     22 N22       -18.5227  -22.4734   38.3585 N.am      1 UNK        -0.4511 
     23 N23       -19.7637  -20.8726   39.2789 N.am      1 UNK        -0.5181 
     24 O24       -20.1273  -23.0085   39.8857 O.2       1 UNK        -0.6163 
     25 O25       -15.7818  -29.2145   36.5161 O.3       1 UNK        -0.3000 
     26 O26       -19.9778  -15.9652   37.8953 O.3       1 UNK        -0.2850 
     27 O27       -24.6199  -17.5862   38.5455 O.3       1 UNK        -0.2850 
     28 O28       -22.8376  -15.6368   37.3947 O.3       1 UNK        -0.2850 
     29 S29       -18.5806  -25.3181   38.6017 S.3       1 UNK        -0.0839 
     30 H30       -14.9736  -24.7653   35.5508 H         1 UNK         0.2114 
     31 H31       -14.4388  -27.1468   35.2632 H         1 UNK         0.1296 
     32 H32       -19.4041  -18.1284   39.0810 H         1 UNK         0.1150 
     33 H33       -23.4262  -19.5723   39.6233 H         1 UNK         0.1150 
     34 H34       -17.6288  -28.1828   37.9929 H         1 UNK         0.2050 
     35 H35       -19.4807  -19.2489   41.4881 H         1 UNK         0.0600 
     36 H36       -21.1034  -19.5274   42.1121 H         1 UNK         0.0600 
     37 H37       -19.9686  -20.8640   42.0014 H         1 UNK         0.0600 
     38 H38       -14.6949  -30.7575   35.7017 H         1 UNK         0.0300 
     39 H39       -13.7650  -29.2945   36.0020 H         1 UNK         0.0300 
     40 H40       -14.9021  -29.3747   34.6340 H         1 UNK         0.0300 
     41 H41       -20.7744  -14.3649   36.8314 H         1 UNK         0.0300 
     42 H42       -19.3959  -13.9969   37.8520 H         1 UNK         0.0300 
     43 H43       -20.9652  -14.2596   38.5993 H         1 UNK         0.0300 
     44 H44       -25.3228  -15.7445   37.8765 H         1 UNK         0.0300 
     45 H45       -24.6302  -15.7255   39.5120 H         1 UNK         0.0300 
     46 H46       -26.2017  -16.4590   39.2165 H         1 UNK         0.0300 
     47 H47       -23.4978  -15.1021   35.5194 H         1 UNK         0.0300 
     48 H48       -23.9037  -16.7515   35.9903 H         1 UNK         0.0300 
     49 H49       -22.2428  -16.3407   35.5318 H         1 UNK         0.0300 
     50 H50       -21.6458  -20.9757   40.1673 H         1 UNK         0.0600 
     51 H51       -18.0776  -21.7095   37.8828 H         1 UNK         0.2912 
     52 H52       -19.2500  -20.2449   38.6854 H         1 UNK         0.2912 
@<TRIPOS>BOND
     1    1    2 ar   
     2    1    7 ar   
     3    1   30 1    
     4    2    8 ar   
     5    2   31 1    
     6    3    6 ar   
     7    3    9 ar   
     8    3   32 1    
     9    4    6 ar   
    10    4   10 ar   
    11    4   33 1    
    12    5    8 ar   
    13    5   12 ar   
    14    5   34 1    
    15    6   20 1    
    16    7   12 ar   
    17    7   21 1    
    18    8   25 1    
    19    9   11 ar   
    20    9   26 1    
    21   10   11 ar   
    22   10   27 1    
    23   11   28 1    
    24   12   29 1    
    25   13   21 2    
    26   13   22 am   BACKBONE|DICT|INTERRES
    27   13   29 1    
    28   14   22 am   BACKBONE|DICT|INTERRES
    29   14   23 am   BACKBONE|DICT|INTERRES
    30   14   24 2    
    31   15   20 1    
    32   15   35 1    
    33   15   36 1    
    34   15   37 1    
    35   16   25 1    
    36   16   38 1    
    37   16   39 1    
    38   16   40 1    
    39   17   26 1    
    40   17   41 1    
    41   17   42 1    
    42   17   43 1    
    43   18   27 1    
    44   18   44 1    
    45   18   45 1    
    46   18   46 1    
    47   19   28 1    
    48   19   47 1    
    49   19   48 1    
    50   19   49 1    
    51   20   23 1    
    52   20   50 1    
    53   22   51 1    
    54   23   52 1    
@<TRIPOS>SUBSTRUCTURE
     1 UNK         1 GROUP             0       ****    0 ROOT    
@<TRIPOS>MOLECULE
ZINC40120457_147
45   47    1
SMALL
USER_CHARGES


@<TRIPOS>ATOM
      1 C1         -7.2218  -13.5408   34.9629 C.ar      1 UNK        -0.1150 
      2 C2         -6.8138  -14.1883   36.1452 C.ar      1 UNK        -0.1150 
      3 C3         -8.2208  -12.5495   35.0129 C.ar      1 UNK        -0.1150 
      4 C4        -10.9152   -9.2535   38.5564 C.ar      1 UNK        -0.1150 
      5 C5         -7.4043  -13.8442   37.3771 C.ar      1 UNK        -0.1150 
      6 C6         -8.8121  -12.2065   36.2446 C.ar      1 UNK        -0.1150 
      7 C7        -11.2492   -8.3873   37.4972 C.ar      1 UNK        -0.1150 
      8 C8         -9.7639   -7.4317   39.6860 C.ar      1 UNK        -0.1150 
      9 C9        -10.1538   -8.7846   39.6494 C.ar      1 UNK        -0.1150 
     10 C10        -8.4098  -12.8549   37.4322 C.ar      1 UNK        -0.0418 
     11 C11       -10.8332   -7.0325   37.5182 C.ar      1 UNK         0.0850 
     12 C12       -10.0812   -6.5663   38.6202 C.ar      1 UNK         0.1996 
     13 C13        -9.8080   -9.6866   40.7989 C.2       1 UNK         0.6150 
     14 C14        -8.8698  -11.8471   41.5522 C.3       1 UNK        -0.0500 
     15 C15        -8.4156  -11.1503   39.2915 C.3       1 UNK        -0.0500 
     16 C16        -9.4761  -13.1511   41.0076 C.3       1 UNK         0.1400 
     17 C17        -9.0362  -12.4556   38.7580 C.3       1 UNK         0.2118 
     18 C18       -11.8574   -6.5687   35.3931 C.3       1 UNK         0.1100 
     19 C19        -8.4293   -4.9818   38.2204 C.3       1 UNK         0.6167 
     20 N20        -9.0790  -10.7999   40.5508 N.am      1 UNK        -0.1400 
     21 O21       -10.2053   -9.3863   41.9230 O.2       1 UNK        -0.5000 
     22 O22        -8.8761  -13.4691   39.7530 O.3       1 UNK        -0.4000 
     23 O23       -11.1240   -6.1225   36.5232 O.3       1 UNK        -0.2850 
     24 O24        -9.6832   -5.2560   38.6646 O.3       1 UNK        -0.3811 
     25 F25        -7.4895   -5.5802   38.9947 F         1 UNK        -0.2326 
     26 F26        -8.2509   -5.3798   36.9360 F         1 UNK        -0.2326 
     27 H27        -6.7675  -13.8042   34.0185 H         1 UNK         0.1150 
     28 H28        -6.0469  -14.9486   36.1089 H         1 UNK         0.1150 
     29 H29        -8.5314  -12.0512   34.1059 H         1 UNK         0.1150 
     30 H30       -11.2573  -10.2779   38.5329 H         1 UNK         0.1150 
     31 H31        -7.0843  -14.3420   38.2814 H         1 UNK         0.1150 
     32 H32        -9.5738  -11.4411   36.2765 H         1 UNK         0.1150 
     33 H33       -11.8343   -8.7840   36.6821 H         1 UNK         0.1150 
     34 H34        -9.2080   -7.0545   40.5327 H         1 UNK         0.1150 
     35 H35        -9.3226  -11.6074   42.5159 H         1 UNK         0.0600 
     36 H36        -7.8023  -11.9709   41.7386 H         1 UNK         0.0600 
     37 H37        -7.3501  -11.2958   39.4755 H         1 UNK         0.0600 
     38 H38        -8.4703  -10.3624   38.5412 H         1 UNK         0.0600 
     39 H39        -9.2973  -13.9712   41.7034 H         1 UNK         0.0300 
     40 H40       -10.5574  -13.0604   40.8928 H         1 UNK         0.0300 
     41 H41       -10.1045  -12.3185   38.5833 H         1 UNK         0.0300 
     42 H42       -11.9868   -5.7385   34.6987 H         1 UNK         0.0300 
     43 H43       -12.8512   -6.9186   35.6758 H         1 UNK         0.0300 
     44 H44       -11.3297   -7.3626   34.8625 H         1 UNK         0.0300 
     45 H45        -8.2666   -3.9059   38.2646 H         1 UNK         0.0300 
@<TRIPOS>BOND
     1    1    2 ar   
     2    1    3 ar   
     3    1   27 1    
     4    2    5 ar   
     5    2   28 1    
     6    3    6 ar   
     7    3   29 1    
     8    4    7 ar   
     9    4    9 ar   
    10    4   30 1    
    11    5   10 ar   
    12    5   31 1    
    13    6   10 ar   
    14    6   32 1    
    15    7   11 ar   
    16    7   33 1    
    17    8    9 ar   
    18    8   12 ar   
    19    8   34 1    
    20    9   13 1    
    21   10   17 1    
    22   11   12 ar   
    23   11   23 1    
    24   12   24 1    
    25   13   20 am   BACKBONE|DICT|INTERRES
    26   13   21 2    
    27   14   16 1    
    28   14   20 1    
    29   14   35 1    
    30   14   36 1    
    31   15   17 1    
    32   15   20 1    
    33   15   37 1    
    34   15   38 1    
    35   16   22 1    
    36   16   39 1    
    37   16   40 1    
    38   17   22 1    
    39   17   41 1    
    40   18   23 1    
    41   18   42 1    
    42   18   43 1    
    43   18   44 1    
    44   19   24 1    
    45   19   25 1    
    46   19   26 1    
    47   19   45 1    
@<TRIPOS>SUBSTRUCTURE
     1 UNK         1 GROUP             0       ****    0 ROOT    
@<TRIPOS>MOLECULE
ZINC40120458_100
45   47    1
SMALL
USER_CHARGES


@<TRIPOS>ATOM
      1 C1         -5.0078  -12.0136   35.2328 C.ar      1 UNK        -0.1150 
      2 C2         -5.2473  -12.7333   36.4192 C.ar      1 UNK        -0.1150 
      3 C3         -4.9636  -10.6063   35.2608 C.ar      1 UNK        -0.1150 
      4 C4         -7.1259   -5.4082   38.9219 C.ar      1 UNK        -0.1150 
      5 C5         -5.4424  -12.0457   37.6333 C.ar      1 UNK        -0.1150 
      6 C6         -5.1578   -9.9191   36.4751 C.ar      1 UNK        -0.1150 
      7 C7         -7.5658   -4.6206   37.8403 C.ar      1 UNK        -0.1150 
      8 C8         -9.0184   -6.9020   38.6059 C.ar      1 UNK        -0.1150 
      9 C9         -7.8375   -6.5648   39.3011 C.ar      1 UNK        -0.1150 
     10 C10        -5.3932  -10.6356   37.6681 C.ar      1 UNK        -0.0418 
     11 C11        -8.7360   -4.9726   37.1223 C.ar      1 UNK         0.0850 
     12 C12        -9.4530   -6.1295   37.5126 C.ar      1 UNK         0.1996 
     13 C13        -7.3791   -7.3694   40.4848 C.2       1 UNK         0.6150 
     14 C14        -6.9268   -9.5738   41.4911 C.3       1 UNK        -0.0500 
     15 C15        -7.1026   -9.4444   39.0930 C.3       1 UNK        -0.0500 
     16 C16        -5.4585  -10.0047   41.3516 C.3       1 UNK         0.1400 
     17 C17        -5.6297   -9.8850   38.9681 C.3       1 UNK         0.2118 
     18 C18        -8.5893   -3.0241   35.7208 C.3       1 UNK         0.1100 
     19 C19       -10.4862   -6.9255   35.5799 C.3       1 UNK         0.6167 
     20 N20        -7.2601   -8.7120   40.3549 N.am      1 UNK        -0.1400 
     21 O21        -7.1264   -6.7792   41.5339 O.2       1 UNK        -0.5000 
     22 O22        -5.2887  -10.6782   40.1066 O.3       1 UNK        -0.4000 
     23 O23        -9.2294   -4.2455   36.0591 O.3       1 UNK        -0.2850 
     24 O24       -10.6013   -6.5080   36.8678 O.3       1 UNK        -0.3811 
     25 F25       -10.4896   -8.2800   35.5349 F         1 UNK        -0.2326 
     26 F26       -11.5416   -6.4853   34.8533 F         1 UNK        -0.2326 
     27 H27        -4.8587  -12.5413   34.3017 H         1 UNK         0.1150 
     28 H28        -5.2827  -13.8130   36.3995 H         1 UNK         0.1150 
     29 H29        -4.7810  -10.0546   34.3500 H         1 UNK         0.1150 
     30 H30        -6.2402   -5.1190   39.4714 H         1 UNK         0.1150 
     31 H31        -5.6285  -12.6021   38.5409 H         1 UNK         0.1150 
     32 H32        -5.1259   -8.8395   36.4888 H         1 UNK         0.1150 
     33 H33        -6.9888   -3.7446   37.5869 H         1 UNK         0.1150 
     34 H34        -9.5995   -7.7626   38.9054 H         1 UNK         0.1150 
     35 H35        -7.5784  -10.4484   41.4914 H         1 UNK         0.0600 
     36 H36        -7.0850   -9.0801   42.4516 H         1 UNK         0.0600 
     37 H37        -7.3680   -8.8614   38.2133 H         1 UNK         0.0600 
     38 H38        -7.7612  -10.3142   39.0888 H         1 UNK         0.0600 
     39 H39        -4.7891   -9.1448   41.4108 H         1 UNK         0.0300 
     40 H40        -5.1832  -10.6814   42.1608 H         1 UNK         0.0300 
     41 H41        -4.9825   -9.0054   38.9603 H         1 UNK         0.0300 
     42 H42        -9.1265   -2.5529   34.8976 H         1 UNK         0.0300 
     43 H43        -7.5626   -3.1892   35.3919 H         1 UNK         0.0300 
     44 H44        -8.5938   -2.3253   36.5584 H         1 UNK         0.0300 
     45 H45        -9.5717   -6.5706   35.1046 H         1 UNK         0.0300 
@<TRIPOS>BOND
     1    1    2 ar   
     2    1    3 ar   
     3    1   27 1    
     4    2    5 ar   
     5    2   28 1    
     6    3    6 ar   
     7    3   29 1    
     8    4    7 ar   
     9    4    9 ar   
    10    4   30 1    
    11    5   10 ar   
    12    5   31 1    
    13    6   10 ar   
    14    6   32 1    
    15    7   11 ar   
    16    7   33 1    
    17    8    9 ar   
    18    8   12 ar   
    19    8   34 1    
    20    9   13 1    
    21   10   17 1    
    22   11   12 ar   
    23   11   23 1    
    24   12   24 1    
    25   13   20 am   BACKBONE|DICT|INTERRES
    26   13   21 2    
    27   14   16 1    
    28   14   20 1    
    29   14   35 1    
    30   14   36 1    
    31   15   17 1    
    32   15   20 1    
    33   15   37 1    
    34   15   38 1    
    35   16   22 1    
    36   16   39 1    
    37   16   40 1    
    38   17   22 1    
    39   17   41 1    
    40   18   23 1    
    41   18   42 1    
    42   18   43 1    
    43   18   44 1    
    44   19   24 1    
    45   19   25 1    
    46   19   26 1    
    47   19   45 1    
@<TRIPOS>SUBSTRUCTURE
     1 UNK         1 GROUP             0       ****    0 ROOT    
@<TRIPOS>MOLECULE
ZINC40122516_6
55   57    1
SMALL
USER_CHARGES


@<TRIPOS>ATOM
      1 C1         -5.4788  -11.0477   35.2851 C.ar      1 UNK        -0.1150 
      2 C2         -4.8439  -10.3280   36.3095 C.ar      1 UNK        -0.1150 
      3 C3         -6.4975  -11.9595   35.6066 C.ar      1 UNK        -0.1150 
      4 C4         -5.2217  -10.5264   37.6500 C.ar      1 UNK        -0.1150 
      5 C5         -7.9612   -7.2954   38.3373 C.ar      1 UNK        -0.1150 
      6 C6         -8.5688   -5.3545   39.6813 C.ar      1 UNK        -0.1150 
      7 C7         -7.9047   -6.5908   39.5598 C.ar      1 UNK        -0.1150 
      8 C8         -6.8775  -12.1681   36.9492 C.ar      1 UNK        -0.1150 
      9 C9         -6.2302  -11.4649   38.0049 C.ar      1 UNK        -0.0383 
     10 C10        -8.7087   -6.7878   37.2484 C.ar      1 UNK         0.0850 
     11 C11        -9.3241   -4.8276   38.6061 C.ar      1 UNK         0.0850 
     12 C12        -9.3833   -5.5542   37.3911 C.ar      1 UNK         0.0850 
     13 C13        -7.1286   -7.1318   40.7216 C.2       1 UNK         0.6150 
     14 C14        -5.9184  -11.2219   40.4445 C.2       1 UNK         0.5000 
     15 C15        -8.0008  -13.1495   37.2208 C.3       1 UNK        -0.0050 
     16 C16        -8.0007  -13.6340   38.6661 C.3       1 UNK        -0.1200 
     17 C17        -7.8563  -12.4605   39.6395 C.3       1 UNK        -0.0500 
     18 C18        -8.0919   -8.6332   35.8321 C.3       1 UNK         0.1100 
     19 C19        -9.9634   -2.8928   39.8877 C.3       1 UNK         0.1100 
     20 C20        -9.5662   -3.9427   35.6981 C.3       1 UNK         0.1100 
     21 C21        -6.6551  -10.7355   41.7065 C.3       1 UNK        -0.1200 
     22 C22        -6.5009   -9.2150   41.9083 C.3       1 UNK         0.0800 
     23 N23        -6.6373  -11.6724   39.3795 N.am      1 UNK        -0.0317 
     24 N24        -7.1932   -8.4584   40.8678 N.am      1 UNK        -0.5000 
     25 O25        -6.5408   -6.3928   41.5063 O.2       1 UNK        -0.5000 
     26 O26        -4.6888  -11.1770   40.4602 O.2       1 UNK        -0.5000 
     27 O27        -8.8169   -7.4290   36.0310 O.3       1 UNK        -0.2850 
     28 O28       -10.0292   -3.6436   38.6844 O.3       1 UNK        -0.2850 
     29 O29       -10.1158   -5.0900   36.3265 O.3       1 UNK        -0.2850 
     30 H30        -5.1895  -10.8960   34.2551 H         1 UNK         0.1150 
     31 H31        -4.0652   -9.6183   36.0691 H         1 UNK         0.1150 
     32 H32        -6.9900  -12.5020   34.8122 H         1 UNK         0.1150 
     33 H33        -4.7075   -9.9349   38.3931 H         1 UNK         0.1150 
     34 H34        -7.4176   -8.2233   38.2455 H         1 UNK         0.1150 
     35 H35        -8.4938   -4.8342   40.6246 H         1 UNK         0.1150 
     36 H36        -8.9449  -12.6516   36.9955 H         1 UNK         0.0600 
     37 H37        -7.9233  -14.0014   36.5436 H         1 UNK         0.0600 
     38 H38        -8.9074  -14.2033   38.8741 H         1 UNK         0.0600 
     39 H39        -7.1640  -14.3193   38.8126 H         1 UNK         0.0600 
     40 H40        -8.7239  -11.8034   39.5666 H         1 UNK         0.0600 
     41 H41        -7.8574  -12.8877   40.6439 H         1 UNK         0.0600 
     42 H42        -8.2686   -8.9997   34.8212 H         1 UNK         0.0300 
     43 H43        -8.4089   -9.4144   36.5243 H         1 UNK         0.0300 
     44 H44        -7.0195   -8.4681   35.9376 H         1 UNK         0.0300 
     45 H45       -10.5624   -1.9887   39.7796 H         1 UNK         0.0300 
     46 H46        -8.9408   -2.5857   40.1107 H         1 UNK         0.0300 
     47 H47       -10.3662   -3.4547   40.7313 H         1 UNK         0.0300 
     48 H48       -10.0780   -3.7713   34.7515 H         1 UNK         0.0300 
     49 H49        -8.5053   -4.0788   35.4821 H         1 UNK         0.0300 
     50 H50        -9.6867   -3.0449   36.3033 H         1 UNK         0.0300 
     51 H51        -6.2194  -11.2573   42.5590 H         1 UNK         0.0600 
     52 H52        -7.7150  -10.9806   41.7123 H         1 UNK         0.0600 
     53 H53        -6.9008   -8.9262   42.8814 H         1 UNK         0.0600 
     54 H54        -5.4435   -8.9397   41.9164 H         1 UNK         0.0600 
     55 H55        -7.7616   -8.9519   40.1989 H         1 UNK         0.3000 
@<TRIPOS>BOND
     1    1    2 ar   
     2    1    3 ar   
     3    1   30 1    
     4    2    4 ar   
     5    2   31 1    
     6    3    8 ar   
     7    3   32 1    
     8    4    9 ar   
     9    4   33 1    
    10    5    7 ar   
    11    5   10 ar   
    12    5   34 1    
    13    6    7 ar   
    14    6   11 ar   
    15    6   35 1    
    16    7   13 1    
    17    8    9 ar   
    18    8   15 1    
    19    9   23 1    
    20   10   12 ar   
    21   10   27 1    
    22   11   12 ar   
    23   11   28 1    
    24   12   29 1    
    25   13   24 am   BACKBONE|DICT|INTERRES
    26   13   25 2    
    27   14   21 1    
    28   14   23 am   BACKBONE|DICT|INTERRES
    29   14   26 2    
    30   15   16 1    
    31   15   36 1    
    32   15   37 1    
    33   16   17 1    
    34   16   38 1    
    35   16   39 1    
    36   17   23 1    
    37   17   40 1    
    38   17   41 1    
    39   18   27 1    
    40   18   42 1    
    41   18   43 1    
    42   18   44 1    
    43   19   28 1    
    44   19   45 1    
    45   19   46 1    
    46   19   47 1    
    47   20   29 1    
    48   20   48 1    
    49   20   49 1    
    50   20   50 1    
    51   21   22 1    
    52   21   51 1    
    53   21   52 1    
    54   22   24 1    
    55   22   53 1    
    56   22   54 1    
    57   24   55 1    
@<TRIPOS>SUBSTRUCTURE
     1 UNK         1 GROUP             0       ****    0 ROOT    
@<TRIPOS>MOLECULE
ZINC40148910_140
54   56    1
SMALL
USER_CHARGES


@<TRIPOS>ATOM
      1 C1         -5.6480  -13.3285   33.8683 C.ar      1 UNK         0.2270 
      2 C2         -5.8522  -12.7983   35.1546 C.ar      1 UNK        -0.4470 
      3 C3         -9.6620   -8.6980   38.5177 C.ar      1 UNK        -0.1150 
      4 C4         -8.9900   -6.4896   39.2744 C.ar      1 UNK        -0.1150 
      5 C5         -7.9226  -14.1130   33.9318 C.ar      1 UNK         0.4730 
      6 C6         -9.0544   -7.8786   39.4885 C.ar      1 UNK        -0.1150 
      7 C7        -10.1321   -8.1481   37.3031 C.ar      1 UNK         0.0850 
      8 C8         -9.4738   -5.9051   38.0775 C.ar      1 UNK         0.0850 
      9 C9        -10.0236   -6.7559   37.0723 C.ar      1 UNK         0.0850 
     10 C10        -6.7052  -14.0041   33.2399 C.ar      1 UNK        -0.1120 
     11 C11        -7.1060  -12.9641   35.7880 C.ar      1 UNK         0.5700 
     12 C12        -8.5472   -8.4517   40.7822 C.2       1 UNK         0.6150 
     13 C13        -6.5835  -11.9451   38.0242 C.2       1 UNK         0.5000 
     14 C14        -7.5373  -11.6889   41.8098 C.3       1 UNK        -0.1200 
     15 C15        -6.9169  -12.2736   40.5260 C.3       1 UNK        -0.1200 
     16 C16        -7.2233  -10.1867   41.9533 C.3       1 UNK        -0.0500 
     17 C17        -6.9314   -9.9493   39.5498 C.3       1 UNK        -0.0500 
     18 C18        -7.2875  -11.4298   39.2873 C.3       1 UNK        -0.0600 
     19 C19       -10.7800  -10.3142   36.4636 C.3       1 UNK         0.1100 
     20 C20        -8.9890   -3.6886   38.9126 C.3       1 UNK         0.1100 
     21 C21        -9.9853   -5.1487   35.2630 C.3       1 UNK         0.1100 
     22 N22        -8.1192  -13.6028   35.1669 N.ar      1 UNK        -0.6780 
     23 N23        -7.6544   -9.4746   40.7410 N.am      1 UNK        -0.1400 
     24 N24        -7.3900  -12.4439   37.0721 N.am      1 UNK        -0.3850 
     25 O25        -8.9575   -7.9667   41.8354 O.2       1 UNK        -0.5000 
     26 O26        -5.3581  -11.8804   37.9547 O.2       1 UNK        -0.5000 
     27 O27       -10.6982   -8.9074   36.2982 O.3       1 UNK        -0.2850 
     28 O28        -9.4455   -4.5395   37.8706 O.3       1 UNK        -0.2850 
     29 O29       -10.5137   -6.3259   35.8535 O.3       1 UNK        -0.2850 
     30 Cl30       -6.5138  -14.6775   31.6631 Cl        1 UNK        -0.1800 
     31 H31        -4.6956  -13.2153   33.3719 H         1 UNK         0.0650 
     32 H32        -5.0367  -12.2722   35.6281 H         1 UNK         0.1550 
     33 H33        -9.7577   -9.7505   38.7260 H         1 UNK         0.1150 
     34 H34        -8.5628   -5.8882   40.0627 H         1 UNK         0.1150 
     35 H35        -8.7642  -14.6218   33.4849 H         1 UNK         0.0120 
     36 H36        -8.6188  -11.8327   41.7939 H         1 UNK         0.0600 
     37 H37        -7.1700  -12.2314   42.6820 H         1 UNK         0.0600 
     38 H38        -5.8310  -12.3055   40.6372 H         1 UNK         0.0600 
     39 H39        -7.2388  -13.3074   40.3935 H         1 UNK         0.0600 
     40 H40        -7.7022   -9.8050   42.8570 H         1 UNK         0.0600 
     41 H41        -6.1527  -10.0346   42.0978 H         1 UNK         0.0600 
     42 H42        -5.8597   -9.8526   39.7349 H         1 UNK         0.0600 
     43 H43        -7.1090   -9.3437   38.6612 H         1 UNK         0.0600 
     44 H44        -8.3649  -11.5064   39.1393 H         1 UNK         0.0600 
     45 H45       -11.2263  -10.7542   35.5718 H         1 UNK         0.0300 
     46 H46       -11.4104  -10.5801   37.3130 H         1 UNK         0.0300 
     47 H47        -9.7917  -10.7578   36.5889 H         1 UNK         0.0300 
     48 H48        -9.0777   -2.6508   38.5917 H         1 UNK         0.0300 
     49 H49        -7.9393   -3.8708   39.1457 H         1 UNK         0.0300 
     50 H50        -9.5892   -3.8045   39.8163 H         1 UNK         0.0300 
     51 H51       -10.1783   -5.1728   34.1908 H         1 UNK         0.0300 
     52 H52        -8.9059   -5.0690   35.3987 H         1 UNK         0.0300 
     53 H53       -10.4723   -4.2571   35.6580 H         1 UNK         0.0300 
     54 H54        -8.3634  -12.5039   37.3164 H         1 UNK         0.3000 
@<TRIPOS>BOND
     1    1    2 ar   
     2    1   10 ar   
     3    1   31 1    
     4    2   11 ar   
     5    2   32 1    
     6    3    6 ar   
     7    3    7 ar   
     8    3   33 1    
     9    4    6 ar   
    10    4    8 ar   
    11    4   34 1    
    12    5   10 ar   
    13    5   22 ar   
    14    5   35 1    
    15    6   12 1    
    16    7    9 ar   
    17    7   27 1    
    18    8    9 ar   
    19    8   28 1    
    20    9   29 1    
    21   10   30 1    
    22   11   22 ar   
    23   11   24 1    
    24   12   23 am   BACKBONE|DICT|INTERRES
    25   12   25 2    
    26   13   18 1    
    27   13   24 am   BACKBONE|DICT|INTERRES
    28   13   26 2    
    29   14   15 1    
    30   14   16 1    
    31   14   36 1    
    32   14   37 1    
    33   15   18 1    
    34   15   38 1    
    35   15   39 1    
    36   16   23 1    
    37   16   40 1    
    38   16   41 1    
    39   17   18 1    
    40   17   23 1    
    41   17   42 1    
    42   17   43 1    
    43   18   44 1    
    44   19   27 1    
    45   19   45 1    
    46   19   46 1    
    47   19   47 1    
    48   20   28 1    
    49   20   48 1    
    50   20   49 1    
    51   20   50 1    
    52   21   29 1    
    53   21   51 1    
    54   21   52 1    
    55   21   53 1    
    56   24   54 1    
@<TRIPOS>SUBSTRUCTURE
     1 UNK         1 GROUP             0       ****    0 ROOT    
@<TRIPOS>MOLECULE
ZINC40156245_138
49   51    1
SMALL
USER_CHARGES


@<TRIPOS>ATOM
      1 C1         -8.3536   -5.9278   38.7565 C.ar      1 UNK        -0.1150 
      2 C2         -6.6016   -4.3249   39.3078 C.ar      1 UNK        -0.1150 
      3 C3         -7.2309   -5.5657   39.5312 C.ar      1 UNK        -0.1150 
      4 C4         -8.8184   -5.0811   37.7226 C.ar      1 UNK         0.0850 
      5 C5         -7.0526   -3.4592   38.2826 C.ar      1 UNK         0.0850 
      6 C6         -8.1537   -3.8570   37.4871 C.ar      1 UNK         0.0850 
      7 C7         -4.3863   -9.2128   37.5423 C.2       1 UNK         0.5486 
      8 C8         -3.6682   -9.5899   35.6301 C.2       1 UNK         0.5497 
      9 C9         -6.7466   -6.4506   40.6436 C.2       1 UNK         0.6150 
     10 C10        -4.6725   -9.0707   41.4135 C.3       1 UNK        -0.1200 
     11 C11        -4.2525   -9.6030   40.0312 C.3       1 UNK        -0.1200 
     12 C12        -6.1707   -8.7187   41.4332 C.3       1 UNK        -0.0500 
     13 C13        -6.2081   -8.3079   39.0291 C.3       1 UNK        -0.0500 
     14 C14        -4.7124   -8.6652   38.8957 C.3       1 UNK         0.0550 
     15 C15        -2.9243   -9.4622   34.3489 C.3       1 UNK        -0.0650 
     16 C16       -10.6035   -6.5876   37.1459 C.3       1 UNK         0.1100 
     17 C17        -5.4264   -1.7795   38.8492 C.3       1 UNK         0.1100 
     18 C18        -7.8188   -3.0568   35.3200 C.3       1 UNK         0.1100 
     19 N19        -3.5654   -8.6834   36.6398 N.2       1 UNK        -0.7040 
     20 N20        -4.4820  -10.6138   35.8500 N.2       1 UNK        -0.4268 
     21 N21        -6.4641   -7.7493   40.3680 N.am      1 UNK        -0.1400 
     22 O22        -6.6283   -5.9682   41.7686 O.2       1 UNK        -0.5000 
     23 O23        -4.9710  -10.3668   37.1405 O.3       1 UNK        -0.1975 
     24 O24        -9.8915   -5.3828   36.9096 O.3       1 UNK        -0.2850 
     25 O25        -6.4805   -2.2326   38.0135 O.3       1 UNK        -0.2850 
     26 O26        -8.6191   -3.0381   36.4901 O.3       1 UNK        -0.2850 
     27 H27        -8.8435   -6.8648   38.9721 H         1 UNK         0.1150 
     28 H28        -5.7707   -4.0585   39.9438 H         1 UNK         0.1150 
     29 H29        -4.4505   -9.8110   42.1832 H         1 UNK         0.0600 
     30 H30        -4.0870   -8.1839   41.6623 H         1 UNK         0.0600 
     31 H31        -3.1711   -9.7411   39.9900 H         1 UNK         0.0600 
     32 H32        -4.6922  -10.5908   39.8831 H         1 UNK         0.0600 
     33 H33        -6.7712   -9.6160   41.2773 H         1 UNK         0.0600 
     34 H34        -6.4520   -8.3463   42.4206 H         1 UNK         0.0600 
     35 H35        -6.4659   -7.6311   38.2161 H         1 UNK         0.0600 
     36 H36        -6.8253   -9.1961   38.8862 H         1 UNK         0.0600 
     37 H37        -4.1469   -7.7369   38.9930 H         1 UNK         0.0600 
     38 H38        -2.2185  -10.2856   34.2425 H         1 UNK         0.0600 
     39 H39        -3.6179   -9.4847   33.5086 H         1 UNK         0.0600 
     40 H40        -2.3717   -8.5234   34.3183 H         1 UNK         0.0600 
     41 H41       -11.4249   -6.6638   36.4336 H         1 UNK         0.0300 
     42 H42       -11.0340   -6.6061   38.1480 H         1 UNK         0.0300 
     43 H43        -9.9658   -7.4617   37.0081 H         1 UNK         0.0300 
     44 H44        -5.1086   -0.7900   38.5211 H         1 UNK         0.0300 
     45 H45        -4.5597   -2.4391   38.7910 H         1 UNK         0.0300 
     46 H46        -5.7493   -1.6943   39.8878 H         1 UNK         0.0300 
     47 H47        -8.2749   -2.4243   34.5586 H         1 UNK         0.0300 
     48 H48        -7.7437   -4.0671   34.9149 H         1 UNK         0.0300 
     49 H49        -6.8128   -2.6803   35.5064 H         1 UNK         0.0300 
@<TRIPOS>BOND
     1    1    3 ar   
     2    1    4 ar   
     3    1   27 1    
     4    2    3 ar   
     5    2    5 ar   
     6    2   28 1    
     7    3    9 1    
     8    4    6 ar   
     9    4   24 1    
    10    5    6 ar   
    11    5   25 1    
    12    6   26 1    
    13    7   14 1    
    14    7   19 2    
    15    7   23 1    
    16    8   15 1    
    17    8   19 1    
    18    8   20 2    
    19    9   21 am   BACKBONE|DICT|INTERRES
    20    9   22 2    
    21   10   11 1    
    22   10   12 1    
    23   10   29 1    
    24   10   30 1    
    25   11   14 1    
    26   11   31 1    
    27   11   32 1    
    28   12   21 1    
    29   12   33 1    
    30   12   34 1    
    31   13   14 1    
    32   13   21 1    
    33   13   35 1    
    34   13   36 1    
    35   14   37 1    
    36   15   38 1    
    37   15   39 1    
    38   15   40 1    
    39   16   24 1    
    40   16   41 1    
    41   16   42 1    
    42   16   43 1    
    43   17   25 1    
    44   17   44 1    
    45   17   45 1    
    46   17   46 1    
    47   18   26 1    
    48   18   47 1    
    49   18   48 1    
    50   18   49 1    
    51   20   23 1    
@<TRIPOS>SUBSTRUCTURE
     1 UNK         1 GROUP             0       ****    0 ROOT    
@<TRIPOS>MOLECULE
ZINC40156246_17
49   51    1
SMALL
USER_CHARGES


@<TRIPOS>ATOM
      1 C1         -7.0158   -4.1154   39.6964 C.ar      1 UNK        -0.1150 
      2 C2         -7.9617   -6.1244   38.6940 C.ar      1 UNK        -0.1150 
      3 C3         -7.1697   -5.5161   39.6917 C.ar      1 UNK        -0.1150 
      4 C4         -7.6039   -3.3194   38.6848 C.ar      1 UNK         0.0850 
      5 C5         -8.5492   -5.3505   37.6649 C.ar      1 UNK         0.0850 
      6 C6         -8.3558   -3.9489   37.6678 C.ar      1 UNK         0.0850 
      7 C7         -5.2742   -9.4529   37.3317 C.2       1 UNK         0.5486 
      8 C8         -4.2039   -9.8621   35.5981 C.2       1 UNK         0.5497 
      9 C9         -6.5511   -6.3272   40.7955 C.2       1 UNK         0.6150 
     10 C10        -5.6975   -9.7308   41.1869 C.3       1 UNK        -0.1200 
     11 C11        -5.3046  -10.1573   39.7596 C.3       1 UNK        -0.1200 
     12 C12        -5.2226   -8.2972   41.4924 C.3       1 UNK        -0.0500 
     13 C13        -5.2375   -7.7010   39.1323 C.3       1 UNK        -0.0500 
     14 C14        -5.7251   -9.1030   38.7140 C.3       1 UNK         0.0550 
     15 C15        -3.0993  -10.2442   34.6786 C.3       1 UNK        -0.0650 
     16 C16        -6.7865   -1.2817   39.6658 C.3       1 UNK         0.1100 
     17 C17        -9.4450   -7.2986   36.5697 C.3       1 UNK         0.1100 
     18 C18        -8.2372   -3.2165   35.4550 C.3       1 UNK         0.1100 
     19 N19        -4.0454   -9.7909   36.9475 N.2       1 UNK        -0.7040 
     20 N20        -5.4119   -9.5617   35.1396 N.2       1 UNK        -0.4268 
     21 N21        -5.7519   -7.3777   40.4735 N.am      1 UNK        -0.1400 
     22 O22        -6.7834   -6.0016   41.9585 O.2       1 UNK        -0.5000 
     23 O23        -6.1315   -9.2544   36.3023 O.3       1 UNK        -0.1975 
     24 O24        -7.4782   -1.9469   38.6199 O.3       1 UNK        -0.2850 
     25 O25        -9.3180   -5.8871   36.6522 O.3       1 UNK        -0.2850 
     26 O26        -8.9267   -3.1709   36.6929 O.3       1 UNK        -0.2850 
     27 H27        -6.4367   -3.6727   40.4931 H         1 UNK         0.1150 
     28 H28        -8.1137   -7.1903   38.7391 H         1 UNK         0.1150 
     29 H29        -6.7810   -9.7864   41.3026 H         1 UNK         0.0600 
     30 H30        -5.2766  -10.4271   41.9134 H         1 UNK         0.0600 
     31 H31        -4.2228  -10.2947   39.7155 H         1 UNK         0.0600 
     32 H32        -5.7445  -11.1256   39.5175 H         1 UNK         0.0600 
     33 H33        -5.5299   -8.0258   42.5043 H         1 UNK         0.0600 
     34 H34        -4.1327   -8.2487   41.4911 H         1 UNK         0.0600 
     35 H35        -4.1467   -7.6876   39.1595 H         1 UNK         0.0600 
     36 H36        -5.5036   -6.9663   38.3734 H         1 UNK         0.0600 
     37 H37        -6.8150   -9.0905   38.6874 H         1 UNK         0.0600 
     38 H38        -2.9497  -11.3231   34.7050 H         1 UNK         0.0600 
     39 H39        -3.3303   -9.9483   33.6550 H         1 UNK         0.0600 
     40 H40        -2.1731   -9.7555   34.9800 H         1 UNK         0.0600 
     41 H41        -6.8121   -0.2069   39.4865 H         1 UNK         0.0300 
     42 H42        -5.7392   -1.5838   39.7059 H         1 UNK         0.0300 
     43 H43        -7.2549   -1.4649   40.6339 H         1 UNK         0.0300 
     44 H44       -10.0312   -7.5559   35.6875 H         1 UNK         0.0300 
     45 H45        -9.9641   -7.7034   37.4393 H         1 UNK         0.0300 
     46 H46        -8.4724   -7.7813   36.4691 H         1 UNK         0.0300 
     47 H47        -8.7253   -2.5507   34.7434 H         1 UNK         0.0300 
     48 H48        -8.2336   -4.2182   35.0247 H         1 UNK         0.0300 
     49 H49        -7.2050   -2.8832   35.5718 H         1 UNK         0.0300 
@<TRIPOS>BOND
     1    1    3 ar   
     2    1    4 ar   
     3    1   27 1    
     4    2    3 ar   
     5    2    5 ar   
     6    2   28 1    
     7    3    9 1    
     8    4    6 ar   
     9    4   24 1    
    10    5    6 ar   
    11    5   25 1    
    12    6   26 1    
    13    7   14 1    
    14    7   19 2    
    15    7   23 1    
    16    8   15 1    
    17    8   19 1    
    18    8   20 2    
    19    9   21 am   BACKBONE|DICT|INTERRES
    20    9   22 2    
    21   10   11 1    
    22   10   12 1    
    23   10   29 1    
    24   10   30 1    
    25   11   14 1    
    26   11   31 1    
    27   11   32 1    
    28   12   21 1    
    29   12   33 1    
    30   12   34 1    
    31   13   14 1    
    32   13   21 1    
    33   13   35 1    
    34   13   36 1    
    35   14   37 1    
    36   15   38 1    
    37   15   39 1    
    38   15   40 1    
    39   16   24 1    
    40   16   41 1    
    41   16   42 1    
    42   16   43 1    
    43   17   25 1    
    44   17   44 1    
    45   17   45 1    
    46   17   46 1    
    47   18   26 1    
    48   18   47 1    
    49   18   48 1    
    50   18   49 1    
    51   20   23 1    
@<TRIPOS>SUBSTRUCTURE
     1 UNK         1 GROUP             0       ****    0 ROOT    
@<TRIPOS>MOLECULE
ZINC40159709_92
46   47    1
SMALL
USER_CHARGES


@<TRIPOS>ATOM
      1 C1         -6.6728   -3.6966   39.3903 C.ar      1 UNK        -0.1150 
      2 C2         -7.6800   -5.7012   38.4379 C.ar      1 UNK        -0.1150 
      3 C3         -6.8374   -5.0985   39.4007 C.ar      1 UNK        -0.1150 
      4 C4         -7.3345   -2.8937   38.4312 C.ar      1 UNK         0.0850 
      5 C5         -8.3496   -4.9174   37.4677 C.ar      1 UNK         0.0850 
      6 C6         -8.1646   -3.5161   37.4732 C.ar      1 UNK         0.0850 
      7 C7         -6.1118   -5.9050   40.4227 C.2       1 UNK         0.6250 
      8 C8         -6.8597  -10.1941   40.1343 C.3       1 UNK        -0.1200 
      9 C9         -5.4979  -10.6944   39.6235 C.3       1 UNK        -0.1200 
     10 C10        -6.6994   -9.3475   41.4079 C.3       1 UNK        -0.1200 
     11 C11        -4.3880   -8.6305   40.6175 C.3       1 UNK        -0.1200 
     12 C12        -4.5055   -9.5411   39.3726 C.3       1 UNK        -0.0600 
     13 C13        -5.7436   -8.1608   41.1945 C.3       1 UNK         0.2200 
     14 C14        -4.8133   -8.7706   38.0753 C.3       1 UNK        -0.1800 
     15 C15        -6.4161   -0.8639   39.3378 C.3       1 UNK         0.1100 
     16 C16        -9.4065   -6.8449   36.4871 C.3       1 UNK         0.1100 
     17 C17        -8.1424   -2.6811   35.3012 C.3       1 UNK         0.1100 
     18 O18        -5.3459   -5.4168   41.2552 O.2       1 UNK        -0.4300 
     19 O19        -7.2112   -1.5209   38.3626 O.3       1 UNK        -0.2850 
     20 O20        -9.1829   -5.4434   36.5010 O.3       1 UNK        -0.2850 
     21 O21        -8.8123   -2.7382   36.5487 O.3       1 UNK        -0.2850 
     22 O22        -6.3744   -7.2243   40.3301 O.3       1 UNK        -0.3300 
     23 H23        -6.0264   -3.2519   40.1320 H         1 UNK         0.1150 
     24 H24        -7.8056   -6.7723   38.4503 H         1 UNK         0.1150 
     25 H25        -7.3568   -9.6074   39.3610 H         1 UNK         0.0600 
     26 H26        -7.5124  -11.0438   40.3370 H         1 UNK         0.0600 
     27 H27        -5.0732  -11.3776   40.3609 H         1 UNK         0.0600 
     28 H28        -5.6313  -11.2826   38.7146 H         1 UNK         0.0600 
     29 H29        -7.6721   -8.9878   41.7457 H         1 UNK         0.0600 
     30 H30        -6.3131   -9.9770   42.2105 H         1 UNK         0.0600 
     31 H31        -3.8725   -9.1901   41.3991 H         1 UNK         0.0600 
     32 H32        -3.7470   -7.7738   40.4055 H         1 UNK         0.0600 
     33 H33        -3.5234   -9.9915   39.2199 H         1 UNK         0.0600 
     34 H34        -5.5732   -7.6931   42.1657 H         1 UNK         0.0300 
     35 H35        -5.8082   -8.3282   38.0800 H         1 UNK         0.0600 
     36 H36        -4.7584   -9.4302   37.2089 H         1 UNK         0.0600 
     37 H37        -4.0956   -7.9652   37.9160 H         1 UNK         0.0600 
     38 H38        -6.4386    0.2102   39.1546 H         1 UNK         0.0300 
     39 H39        -5.3749   -1.1846   39.2858 H         1 UNK         0.0300 
     40 H40        -6.7990   -1.0340   40.3449 H         1 UNK         0.0300 
     41 H41       -10.0870   -7.0910   35.6723 H         1 UNK         0.0300 
     42 H42        -9.8678   -7.1840   37.4156 H         1 UNK         0.0300 
     43 H43        -8.4800   -7.3955   36.3196 H         1 UNK         0.0300 
     44 H44        -8.6937   -2.0324   34.6208 H         1 UNK         0.0300 
     45 H45        -8.0685   -3.6662   34.8392 H         1 UNK         0.0300 
     46 H46        -7.1374   -2.2722   35.4147 H         1 UNK         0.0300 
@<TRIPOS>BOND
     1    1    3 ar   
     2    1    4 ar   
     3    1   23 1    
     4    2    3 ar   
     5    2    5 ar   
     6    2   24 1    
     7    3    7 1    
     8    4    6 ar   
     9    4   19 1    
    10    5    6 ar   
    11    5   20 1    
    12    6   21 1    
    13    7   18 2    
    14    7   22 1    
    15    8    9 1    
    16    8   10 1    
    17    8   25 1    
    18    8   26 1    
    19    9   12 1    
    20    9   27 1    
    21    9   28 1    
    22   10   13 1    
    23   10   29 1    
    24   10   30 1    
    25   11   12 1    
    26   11   13 1    
    27   11   31 1    
    28   11   32 1    
    29   12   14 1    
    30   12   33 1    
    31   13   22 1    
    32   13   34 1    
    33   14   35 1    
    34   14   36 1    
    35   14   37 1    
    36   15   19 1    
    37   15   38 1    
    38   15   39 1    
    39   15   40 1    
    40   16   20 1    
    41   16   41 1    
    42   16   42 1    
    43   16   43 1    
    44   17   21 1    
    45   17   44 1    
    46   17   45 1    
    47   17   46 1    
@<TRIPOS>SUBSTRUCTURE
     1 UNK         1 GROUP             0       ****    0 ROOT    
@<TRIPOS>MOLECULE
ZINC40159710_53
46   47    1
SMALL
USER_CHARGES


@<TRIPOS>ATOM
      1 C1         -7.7416   -5.7178   38.4437 C.ar      1 UNK        -0.1150 
      2 C2         -6.8513   -3.6855   39.4520 C.ar      1 UNK        -0.1150 
      3 C3         -6.8865   -5.0948   39.3821 C.ar      1 UNK        -0.1150 
      4 C4         -8.5554   -4.9465   37.5795 C.ar      1 UNK         0.0850 
      5 C5         -7.6579   -2.8949   38.5990 C.ar      1 UNK         0.0850 
      6 C6         -8.4979   -3.5360   37.6624 C.ar      1 UNK         0.0850 
      7 C7         -6.0179   -5.8876   40.2978 C.2       1 UNK         0.6250 
      8 C8         -6.8414  -10.1481   40.1837 C.3       1 UNK        -0.1200 
      9 C9         -5.6221  -10.6663   39.4046 C.3       1 UNK        -0.1200 
     10 C10        -6.4136   -9.2970   41.3916 C.3       1 UNK        -0.1200 
     11 C11        -4.2762   -8.6605   40.1727 C.3       1 UNK        -0.1200 
     12 C12        -4.7049   -9.5115   38.9586 C.3       1 UNK        -0.0600 
     13 C13        -5.4834   -8.1413   40.9808 C.3       1 UNK         0.2200 
     14 C14        -3.4897  -10.0327   38.1780 C.3       1 UNK        -0.1800 
     15 C15        -9.5458   -6.9066   36.5932 C.3       1 UNK         0.1100 
     16 C16        -6.8778   -0.8443   39.5836 C.3       1 UNK         0.1100 
     17 C17        -8.7643   -2.6324   35.5306 C.3       1 UNK         0.1100 
     18 O18        -5.1949   -5.3806   41.0615 O.2       1 UNK        -0.4300 
     19 O19        -9.4169   -5.4941   36.6503 O.3       1 UNK        -0.2850 
     20 O20        -7.6704   -1.5152   38.6161 O.3       1 UNK        -0.2850 
     21 O21        -9.2835   -2.7664   36.8428 O.3       1 UNK        -0.2850 
     22 O22        -6.2303   -7.2161   40.1989 O.3       1 UNK        -0.3300 
     23 H23        -7.7643   -6.7949   38.3925 H         1 UNK         0.1150 
     24 H24        -6.1933   -3.2253   40.1737 H         1 UNK         0.1150 
     25 H25        -7.4737   -9.5543   39.5223 H         1 UNK         0.0600 
     26 H26        -7.4520  -10.9871   40.5189 H         1 UNK         0.0600 
     27 H27        -5.0623  -11.3663   40.0269 H         1 UNK         0.0600 
     28 H28        -5.9596  -11.2323   38.5351 H         1 UNK         0.0600 
     29 H29        -7.2919   -8.9049   41.9057 H         1 UNK         0.0600 
     30 H30        -5.8970   -9.9319   42.1123 H         1 UNK         0.0600 
     31 H31        -3.6426   -9.2581   40.8293 H         1 UNK         0.0600 
     32 H32        -3.6624   -7.8198   39.8467 H         1 UNK         0.0600 
     33 H33        -5.2751   -8.8708   38.2838 H         1 UNK         0.0600 
     34 H34        -5.1250   -7.6589   41.8917 H         1 UNK         0.0300 
     35 H35        -2.8720  -10.6896   38.7914 H         1 UNK         0.0600 
     36 H36        -2.8608   -9.2112   37.8335 H         1 UNK         0.0600 
     37 H37        -3.8009  -10.5962   37.2978 H         1 UNK         0.0600 
     38 H38       -10.2892   -7.1684   35.8404 H         1 UNK         0.0300 
     39 H39        -9.8852   -7.3157   37.5458 H         1 UNK         0.0300 
     40 H40        -8.6063   -7.3814   36.3076 H         1 UNK         0.0300 
     41 H41        -7.0299    0.2308   39.4890 H         1 UNK         0.0300 
     42 H42        -5.8155   -1.0417   39.4337 H         1 UNK         0.0300 
     43 H43        -7.1604   -1.1282   40.5982 H         1 UNK         0.0300 
     44 H44        -9.4226   -1.9931   34.9430 H         1 UNK         0.0300 
     45 H45        -8.6910   -3.5939   35.0216 H         1 UNK         0.0300 
     46 H46        -7.7760   -2.1710   35.5477 H         1 UNK         0.0300 
@<TRIPOS>BOND
     1    1    3 ar   
     2    1    4 ar   
     3    1   23 1    
     4    2    3 ar   
     5    2    5 ar   
     6    2   24 1    
     7    3    7 1    
     8    4    6 ar   
     9    4   19 1    
    10    5    6 ar   
    11    5   20 1    
    12    6   21 1    
    13    7   18 2    
    14    7   22 1    
    15    8    9 1    
    16    8   10 1    
    17    8   25 1    
    18    8   26 1    
    19    9   12 1    
    20    9   27 1    
    21    9   28 1    
    22   10   13 1    
    23   10   29 1    
    24   10   30 1    
    25   11   12 1    
    26   11   13 1    
    27   11   31 1    
    28   11   32 1    
    29   12   14 1    
    30   12   33 1    
    31   13   22 1    
    32   13   34 1    
    33   14   35 1    
    34   14   36 1    
    35   14   37 1    
    36   15   19 1    
    37   15   38 1    
    38   15   39 1    
    39   15   40 1    
    40   16   20 1    
    41   16   41 1    
    42   16   42 1    
    43   16   43 1    
    44   17   21 1    
    45   17   44 1    
    46   17   45 1    
    47   17   46 1    
@<TRIPOS>SUBSTRUCTURE
     1 UNK         1 GROUP             0       ****    0 ROOT    
@<TRIPOS>MOLECULE
ZINC40159711_46
46   47    1
SMALL
USER_CHARGES


@<TRIPOS>ATOM
      1 C1         -6.8250   -3.7376   39.4591 C.ar      1 UNK        -0.1150 
      2 C2         -7.6767   -5.8043   38.4868 C.ar      1 UNK        -0.1150 
      3 C3         -6.8394   -5.1487   39.4195 C.ar      1 UNK        -0.1150 
      4 C4         -7.6369   -2.9775   38.5838 C.ar      1 UNK         0.0850 
      5 C5         -8.4940   -5.0634   37.5995 C.ar      1 UNK         0.0850 
      6 C6         -8.4619   -3.6512   37.6567 C.ar      1 UNK         0.0850 
      7 C7         -5.9703   -5.9087   40.3621 C.2       1 UNK         0.6250 
      8 C8         -4.5065   -9.4853   39.1336 C.3       1 UNK        -0.1200 
      9 C9         -5.3995  -10.6719   39.5304 C.3       1 UNK        -0.1200 
     10 C10        -4.1523   -8.6176   40.3534 C.3       1 UNK        -0.1200 
     11 C11        -6.3208   -9.3268   41.4716 C.3       1 UNK        -0.1200 
     12 C12        -6.6776  -10.1995   40.2497 C.3       1 UNK        -0.0600 
     13 C13        -5.4124   -8.1386   41.1008 C.3       1 UNK         0.2200 
     14 C14        -7.5681  -11.3858   40.6462 C.3       1 UNK        -0.1800 
     15 C15        -6.8915   -0.8953   39.5284 C.3       1 UNK         0.1100 
     16 C16        -9.3967   -7.0581   36.5983 C.3       1 UNK         0.1100 
     17 C17        -8.6967   -2.7426   35.5260 C.3       1 UNK         0.1100 
     18 O18        -5.1707   -5.3730   41.1310 O.2       1 UNK        -0.4300 
     19 O19        -7.6692   -1.5980   38.5712 O.3       1 UNK        -0.2850 
     20 O20        -9.3338   -5.6416   36.6688 O.3       1 UNK        -0.2850 
     21 O21        -9.2566   -2.9149   36.8163 O.3       1 UNK        -0.2850 
     22 O22        -6.1540   -7.2423   40.2814 O.3       1 UNK        -0.3300 
     23 H23        -6.1794   -3.2526   40.1756 H         1 UNK         0.1150 
     24 H24        -7.6843   -6.8825   38.4591 H         1 UNK         0.1150 
     25 H25        -3.5945   -9.8484   38.6585 H         1 UNK         0.0600 
     26 H26        -5.0189   -8.8757   38.3878 H         1 UNK         0.0600 
     27 H27        -5.6622  -11.2428   38.6386 H         1 UNK         0.0600 
     28 H28        -4.8388  -11.3515   40.1744 H         1 UNK         0.0600 
     29 H29        -3.5302   -9.1957   41.0376 H         1 UNK         0.0600 
     30 H30        -3.5481   -7.7632   40.0457 H         1 UNK         0.0600 
     31 H31        -7.2293   -8.9569   41.9488 H         1 UNK         0.0600 
     32 H32        -5.8142   -9.9390   42.2187 H         1 UNK         0.0600 
     33 H33        -7.2476   -9.5834   39.5519 H         1 UNK         0.0600 
     34 H34        -5.1154   -7.6401   42.0250 H         1 UNK         0.0300 
     35 H35        -7.0587  -12.0521   41.3431 H         1 UNK         0.0600 
     36 H36        -7.8517  -11.9736   39.7725 H         1 UNK         0.0600 
     37 H37        -8.4879  -11.0457   41.1234 H         1 UNK         0.0600 
     38 H38        -7.0493    0.1757   39.4021 H         1 UNK         0.0300 
     39 H39        -5.8262   -1.0889   39.3964 H         1 UNK         0.0300 
     40 H40        -7.1837   -1.1535   40.5472 H         1 UNK         0.0300 
     41 H41       -10.1043   -7.3471   35.8214 H         1 UNK         0.0300 
     42 H42        -9.7448   -7.4899   37.5377 H         1 UNK         0.0300 
     43 H43        -8.4284   -7.4873   36.3375 H         1 UNK         0.0300 
     44 H44        -9.3672   -2.1374   34.9162 H         1 UNK         0.0300 
     45 H45        -8.5517   -3.6970   35.0183 H         1 UNK         0.0300 
     46 H46        -7.7368   -2.2271   35.5821 H         1 UNK         0.0300 
@<TRIPOS>BOND
     1    1    3 ar   
     2    1    4 ar   
     3    1   23 1    
     4    2    3 ar   
     5    2    5 ar   
     6    2   24 1    
     7    3    7 1    
     8    4    6 ar   
     9    4   19 1    
    10    5    6 ar   
    11    5   20 1    
    12    6   21 1    
    13    7   18 2    
    14    7   22 1    
    15    8    9 1    
    16    8   10 1    
    17    8   25 1    
    18    8   26 1    
    19    9   12 1    
    20    9   27 1    
    21    9   28 1    
    22   10   13 1    
    23   10   29 1    
    24   10   30 1    
    25   11   12 1    
    26   11   13 1    
    27   11   31 1    
    28   11   32 1    
    29   12   14 1    
    30   12   33 1    
    31   13   22 1    
    32   13   34 1    
    33   14   35 1    
    34   14   36 1    
    35   14   37 1    
    36   15   19 1    
    37   15   38 1    
    38   15   39 1    
    39   15   40 1    
    40   16   20 1    
    41   16   41 1    
    42   16   42 1    
    43   16   43 1    
    44   17   21 1    
    45   17   44 1    
    46   17   45 1    
    47   17   46 1    
@<TRIPOS>SUBSTRUCTURE
     1 UNK         1 GROUP             0       ****    0 ROOT    
@<TRIPOS>MOLECULE
ZINC40284815_234
44   47    1
SMALL
USER_CHARGES


@<TRIPOS>ATOM
      1 C1         -7.6188   -4.2120   39.3247 C.ar      1 UNK        -0.1150 
      2 C2         -8.5475   -6.4674   39.3211 C.ar      1 UNK        -0.1150 
      3 C3         -9.8896   -4.5940   38.5481 C.ar      1 UNK        -0.1150 
      4 C4         -3.2527   -9.5138   34.9011 C.ar      1 UNK        -0.3200 
      5 C5         -7.4702   -5.5918   39.5762 C.ar      1 UNK         0.0000 
      6 C6         -8.8323   -3.7001   38.8070 C.ar      1 UNK         0.0850 
      7 C7         -9.7678   -5.9744   38.8005 C.ar      1 UNK         0.0850 
      8 C8         -2.4554  -10.4258   35.6464 C.ar      1 UNK         0.2230 
      9 C9         -4.3673   -9.3289   35.6696 C.ar      1 UNK         0.0560 
     10 C10        -6.1959   -6.0877   40.0955 C.ar      1 UNK         0.4100 
     11 C11        -4.3734   -7.2878   40.4665 C.ar      1 UNK         0.4175 
     12 C12        -5.0041   -9.0651   38.8553 C.2       1 UNK         0.1303 
     13 C13        -1.1107  -10.9902   35.3024 C.3       1 UNK        -0.0650 
     14 C14        -5.5679   -8.4728   35.4311 C.3       1 UNK        -0.0650 
     15 C15        -8.0224   -1.4400   38.8240 C.3       1 UNK         0.1100 
     16 C16       -10.7794   -8.1530   38.7850 C.3       1 UNK         0.1100 
     17 C17        -5.0863  -10.2693   37.9433 C.3       1 UNK         0.1175 
     18 N18        -3.0326  -10.7771   36.7818 N.2       1 UNK        -0.5310 
     19 N19        -5.4269   -5.4436   40.9913 N.2       1 UNK        -0.3633 
     20 N20        -4.2696   -6.2268   41.2270 N.2       1 UNK        -0.3633 
     21 N21        -5.9542   -8.1222   38.8951 N.2       1 UNK        -0.2500 
     22 N22        -4.2051  -10.1090   36.8009 N.pl3     1 UNK         0.0695 
     23 N23        -5.5372   -7.2063   39.7921 N.pl3     1 UNK        -0.0934 
     24 O24        -9.0566   -2.3686   38.5311 O.3       1 UNK        -0.2850 
     25 O25       -10.8637   -6.7608   38.5178 O.3       1 UNK        -0.2850 
     26 S26        -3.6091   -8.7813   39.9564 S.3       1 UNK        -0.0028 
     27 H27        -6.7802   -3.5657   39.5367 H         1 UNK         0.1150 
     28 H28        -8.4187   -7.5158   39.5385 H         1 UNK         0.1150 
     29 H29       -10.8183   -4.2101   38.1521 H         1 UNK         0.1150 
     30 H30        -3.0335   -9.0601   33.9459 H         1 UNK         0.1500 
     31 H31        -0.7882  -10.6686   34.3123 H         1 UNK         0.0600 
     32 H32        -0.3575  -10.6655   36.0202 H         1 UNK         0.0600 
     33 H33        -1.1307  -12.0802   35.3090 H         1 UNK         0.0600 
     34 H34        -6.4899   -9.0288   35.6000 H         1 UNK         0.0600 
     35 H35        -5.5649   -7.6078   36.0946 H         1 UNK         0.0600 
     36 H36        -5.5846   -8.1052   34.4051 H         1 UNK         0.0600 
     37 H37        -8.3591   -0.4348   38.5708 H         1 UNK         0.0300 
     38 H38        -7.1257   -1.6440   38.2375 H         1 UNK         0.0300 
     39 H39        -7.7699   -1.4454   39.8853 H         1 UNK         0.0300 
     40 H40       -11.7220   -8.6285   38.5144 H         1 UNK         0.0300 
     41 H41       -10.6061   -8.3453   39.8448 H         1 UNK         0.0300 
     42 H42        -9.9909   -8.6251   38.1971 H         1 UNK         0.0300 
     43 H43        -6.1074  -10.4129   37.5902 H         1 UNK         0.0600 
     44 H44        -4.8065  -11.1662   38.4975 H         1 UNK         0.0600 
@<TRIPOS>BOND
     1    1    5 ar   
     2    1    6 ar   
     3    1   27 1    
     4    2    5 ar   
     5    2    7 ar   
     6    2   28 1    
     7    3    6 ar   
     8    3    7 ar   
     9    3   29 1    
    10    4    8 ar   
    11    4    9 ar   
    12    4   30 1    
    13    5   10 1    
    14    6   24 1    
    15    7   25 1    
    16    8   13 1    
    17    8   18 ar   
    18    9   14 1    
    19    9   22 ar   
    20   10   19 ar   
    21   10   23 ar   
    22   11   20 ar   
    23   11   23 ar   
    24   11   26 1    
    25   12   17 1    
    26   12   21 2    
    27   12   26 1    
    28   13   31 1    
    29   13   32 1    
    30   13   33 1    
    31   14   34 1    
    32   14   35 1    
    33   14   36 1    
    34   15   24 1    
    35   15   37 1    
    36   15   38 1    
    37   15   39 1    
    38   16   25 1    
    39   16   40 1    
    40   16   41 1    
    41   16   42 1    
    42   17   22 1    
    43   17   43 1    
    44   17   44 1    
    45   18   22 ar   
    46   19   20 ar   
    47   21   23 1    
@<TRIPOS>SUBSTRUCTURE
     1 UNK         1 GROUP             0       ****    0 ROOT    
@<TRIPOS>MOLECULE
ZINC40285553_193
48   50    1
SMALL
USER_CHARGES


@<TRIPOS>ATOM
      1 C1        -15.9924  -25.7702   36.5361 C.ar      1 UNK        -0.1150 
      2 C2        -15.8960  -27.1673   36.6511 C.ar      1 UNK        -0.1150 
      3 C3        -16.9959  -25.0799   37.2387 C.ar      1 UNK        -0.1150 
      4 C4        -21.6266  -19.2561   37.1398 C.ar      1 UNK        -0.1150 
      5 C5        -16.8036  -27.8770   37.4605 C.ar      1 UNK        -0.1150 
      6 C6        -22.1510  -18.0144   36.7434 C.ar      1 UNK        -0.1150 
      7 C7        -20.3610  -18.1349   38.8829 C.ar      1 UNK        -0.1150 
      8 C8        -17.9079  -25.7882   38.0589 C.ar      1 UNK         0.0631 
      9 C9        -20.7292  -19.3302   38.2265 C.ar      1 UNK        -0.1150 
     10 C10       -17.8295  -27.2056   38.1777 C.ar      1 UNK         0.0850 
     11 C11       -21.8051  -16.8212   37.4064 C.ar      1 UNK         0.0850 
     12 C12       -20.8809  -16.8721   38.4932 C.ar      1 UNK         0.0850 
     13 C13       -19.4246  -25.3555   40.1270 C.ar      1 UNK        -0.2947 
     14 C14       -20.3633  -24.5833   40.7201 C.ar      1 UNK        -0.1717 
     15 C15       -18.9205  -24.9908   38.8091 C.ar      1 UNK         0.3933 
     16 C16       -20.8907  -23.3842   40.0776 C.ar      1 UNK         0.5567 
     17 C17       -20.1322  -20.6214   38.6828 C.2       1 UNK         0.5850 
     18 C18       -18.6726  -29.2993   39.0402 C.3       1 UNK         0.1100 
     19 C19       -22.4060  -14.4775   37.6262 C.3       1 UNK         0.1100 
     20 C20       -19.5877  -15.7646   40.2107 C.3       1 UNK         0.1100 
     21 C21       -20.7287  -21.9242   38.1121 C.3       1 UNK         0.0800 
     22 N22       -19.3728  -23.9148   38.2424 N.2       1 UNK        -0.2833 
     23 N23       -20.3207  -23.1170   38.8684 N.pl3     1 UNK        -0.1934 
     24 O24       -21.7749  -22.6814   40.5621 O.2       1 UNK        -0.5000 
     25 O25       -19.1802  -20.6662   39.4664 O.2       1 UNK        -0.4700 
     26 O26       -18.7606  -27.8849   38.9395 O.3       1 UNK        -0.2850 
     27 O27       -22.4156  -15.6924   36.8937 O.3       1 UNK        -0.2850 
     28 O28       -20.5018  -15.7039   39.1246 O.3       1 UNK        -0.2850 
     29 H29       -15.2940  -25.2269   35.9153 H         1 UNK         0.1150 
     30 H30       -15.1246  -27.6994   36.1128 H         1 UNK         0.1150 
     31 H31       -17.0454  -24.0034   37.1538 H         1 UNK         0.1150 
     32 H32       -21.9271  -20.1344   36.5888 H         1 UNK         0.1150 
     33 H33       -16.6907  -28.9491   37.5046 H         1 UNK         0.1150 
     34 H34       -22.8405  -17.9697   35.9130 H         1 UNK         0.1150 
     35 H35       -19.6613  -18.2149   39.7009 H         1 UNK         0.1150 
     36 H36       -19.0375  -26.2234   40.6371 H         1 UNK         0.1150 
     37 H37       -20.7322  -24.8451   41.6999 H         1 UNK         0.1150 
     38 H38       -19.4737  -29.6632   39.6837 H         1 UNK         0.0300 
     39 H39       -18.7914  -29.7777   38.0671 H         1 UNK         0.0300 
     40 H40       -17.7272  -29.6104   39.4865 H         1 UNK         0.0300 
     41 H41       -23.1066  -13.7814   37.1656 H         1 UNK         0.0300 
     42 H42       -21.4227  -14.0069   37.6034 H         1 UNK         0.0300 
     43 H43       -22.7246  -14.6227   38.6595 H         1 UNK         0.0300 
     44 H44       -19.4140  -14.7573   40.5888 H         1 UNK         0.0300 
     45 H45       -19.9840  -16.3598   41.0346 H         1 UNK         0.0300 
     46 H46       -18.6230  -16.1677   39.8993 H         1 UNK         0.0300 
     47 H47       -21.8176  -21.8560   38.1149 H         1 UNK         0.0600 
     48 H48       -20.4249  -22.0133   37.0688 H         1 UNK         0.0600 
@<TRIPOS>BOND
     1    1    2 ar   
     2    1    3 ar   
     3    1   29 1    
     4    2    5 ar   
     5    2   30 1    
     6    3    8 ar   
     7    3   31 1    
     8    4    6 ar   
     9    4    9 ar   
    10    4   32 1    
    11    5   10 ar   
    12    5   33 1    
    13    6   11 ar   
    14    6   34 1    
    15    7    9 ar   
    16    7   12 ar   
    17    7   35 1    
    18    8   10 ar   
    19    8   15 1    
    20    9   17 1    
    21   10   26 1    
    22   11   12 ar   
    23   11   27 1    
    24   12   28 1    
    25   13   14 ar   
    26   13   15 ar   
    27   13   36 1    
    28   14   16 ar   
    29   14   37 1    
    30   15   22 ar   
    31   16   23 ar   
    32   16   24 2    
    33   17   21 1    
    34   17   25 2    
    35   18   26 1    
    36   18   38 1    
    37   18   39 1    
    38   18   40 1    
    39   19   27 1    
    40   19   41 1    
    41   19   42 1    
    42   19   43 1    
    43   20   28 1    
    44   20   44 1    
    45   20   45 1    
    46   20   46 1    
    47   21   23 1    
    48   21   47 1    
    49   21   48 1    
    50   22   23 ar   
@<TRIPOS>SUBSTRUCTURE
     1 UNK         1 GROUP             0       ****    0 ROOT    
@<TRIPOS>MOLECULE
ZINC40286775_68
38   41    1
SMALL
USER_CHARGES


@<TRIPOS>ATOM
      1 C1         -3.1262   -9.5434   35.4390 C.ar      1 UNK        -0.3200 
      2 C2         -8.3938   -6.0991   38.8557 C.ar      1 UNK        -0.1150 
      3 C3         -7.0296   -4.1299   39.3196 C.ar      1 UNK        -0.1150 
      4 C4         -9.0035   -3.9426   37.9144 C.ar      1 UNK        -0.1150 
      5 C5         -2.5651  -10.6736   36.0964 C.ar      1 UNK         0.2660 
      6 C6         -4.3048   -9.3315   36.0960 C.ar      1 UNK         0.0360 
      7 C7         -7.2716   -5.5102   39.4765 C.ar      1 UNK         0.0000 
      8 C8         -9.2713   -5.3170   38.0674 C.ar      1 UNK         0.0850 
      9 C9         -7.8952   -3.3323   38.5338 C.ar      1 UNK         0.0850 
     10 C10        -6.3509   -6.3085   40.2833 C.ar      1 UNK         0.4100 
     11 C11        -5.0189   -7.9126   41.0241 C.ar      1 UNK         0.4175 
     12 C12        -5.4443   -9.4004   39.0857 C.2       1 UNK         0.1303 
     13 C13       -10.7138   -7.1821   37.6085 C.3       1 UNK         0.1100 
     14 C14        -6.6499   -1.3294   38.9836 C.3       1 UNK         0.1100 
     15 C15        -5.4663  -10.4959   38.0429 C.3       1 UNK         0.1175 
     16 N16        -3.3353  -11.1213   37.0752 N.2       1 UNK        -0.5310 
     17 N17        -5.7951   -5.9097   41.4408 N.2       1 UNK        -0.3633 
     18 N18        -4.9536   -6.9497   41.9094 N.2       1 UNK        -0.3633 
     19 N19        -6.1496   -8.2687   38.9594 N.2       1 UNK        -0.2500 
     20 N20        -4.4049  -10.2976   37.0752 N.pl3     1 UNK         0.0695 
     21 N21        -5.8662   -7.5277   40.0497 N.pl3     1 UNK        -0.0934 
     22 O22       -10.3873   -5.8118   37.4279 O.3       1 UNK        -0.2850 
     23 O23        -7.7279   -1.9803   38.3262 O.3       1 UNK        -0.2850 
     24 S24        -4.4461   -9.5092   40.5792 S.3       1 UNK        -0.0028 
     25 H25        -2.7207   -8.9764   34.6146 H         1 UNK         0.1500 
     26 H26        -8.5657   -7.1535   39.0038 H         1 UNK         0.1150 
     27 H27        -6.1671   -3.7079   39.8136 H         1 UNK         0.1150 
     28 H28        -9.6682   -3.3396   37.3134 H         1 UNK         0.1150 
     29 H29        -1.6301  -11.1772   35.8945 H         1 UNK         0.0720 
     30 H30        -5.0698   -8.5809   35.9547 H         1 UNK         0.1350 
     31 H31       -11.6324   -7.4075   37.0669 H         1 UNK         0.0300 
     32 H32       -10.8864   -7.4156   38.6601 H         1 UNK         0.0300 
     33 H33        -9.9311   -7.8329   37.2165 H         1 UNK         0.0300 
     34 H34        -6.6695   -0.2668   38.7415 H         1 UNK         0.0300 
     35 H35        -5.6865   -1.7236   38.6572 H         1 UNK         0.0300 
     36 H36        -6.7300   -1.4216   40.0679 H         1 UNK         0.0300 
     37 H37        -6.4234  -10.5010   37.5211 H         1 UNK         0.0600 
     38 H38        -5.3487  -11.4677   38.5244 H         1 UNK         0.0600 
@<TRIPOS>BOND
     1    1    5 ar   
     2    1    6 ar   
     3    1   25 1    
     4    2    7 ar   
     5    2    8 ar   
     6    2   26 1    
     7    3    7 ar   
     8    3    9 ar   
     9    3   27 1    
    10    4    8 ar   
    11    4    9 ar   
    12    4   28 1    
    13    5   16 ar   
    14    5   29 1    
    15    6   20 ar   
    16    6   30 1    
    17    7   10 1    
    18    8   22 1    
    19    9   23 1    
    20   10   17 ar   
    21   10   21 ar   
    22   11   18 ar   
    23   11   21 ar   
    24   11   24 1    
    25   12   15 1    
    26   12   19 2    
    27   12   24 1    
    28   13   22 1    
    29   13   31 1    
    30   13   32 1    
    31   13   33 1    
    32   14   23 1    
    33   14   34 1    
    34   14   35 1    
    35   14   36 1    
    36   15   20 1    
    37   15   37 1    
    38   15   38 1    
    39   16   20 ar   
    40   17   18 ar   
    41   19   21 1    
@<TRIPOS>SUBSTRUCTURE
     1 UNK         1 GROUP             0       ****    0 ROOT    
@<TRIPOS>MOLECULE
ZINC40287950_137
50   53    1
SMALL
USER_CHARGES


@<TRIPOS>ATOM
      1 C1        -13.7542  -29.9413   36.4291 C.ar      1 UNK        -0.1150 
      2 C2        -14.6697  -30.4981   37.3428 C.ar      1 UNK        -0.1150 
      3 C3        -13.9058  -28.6076   36.0025 C.ar      1 UNK        -0.1150 
      4 C4        -15.7391  -29.7226   37.8317 C.ar      1 UNK        -0.1150 
      5 C5        -15.1289  -26.4922   36.0619 C.ar      1 UNK        -0.1150 
      6 C6        -16.1977  -25.7126   36.5452 C.ar      1 UNK        -0.1150 
      7 C7        -21.3975  -19.8696   38.0895 C.ar      1 UNK        -0.1150 
      8 C8        -22.1720  -18.7051   38.2344 C.ar      1 UNK        -0.1150 
      9 C9        -16.9679  -27.6091   37.8950 C.ar      1 UNK        -0.1150 
     10 C10       -19.3895  -18.5483   38.3866 C.ar      1 UNK        -0.1150 
     11 C11       -14.9746  -27.8266   36.4883 C.ar      1 UNK         0.0000 
     12 C12       -15.8965  -28.3863   37.4078 C.ar      1 UNK         0.0000 
     13 C13       -17.1223  -26.2707   37.4622 C.ar      1 UNK         0.0631 
     14 C14       -19.9905  -19.8007   38.1462 C.ar      1 UNK        -0.1150 
     15 C15       -21.5711  -17.4379   38.4517 C.ar      1 UNK         0.0850 
     16 C16       -20.1467  -17.3685   38.5327 C.ar      1 UNK         0.0850 
     17 C17       -19.1330  -25.8696   39.0575 C.ar      1 UNK        -0.2947 
     18 C18       -20.1570  -25.0711   39.4360 C.ar      1 UNK        -0.1717 
     19 C19       -18.2510  -25.4426   37.9759 C.ar      1 UNK         0.3933 
     20 C20       -20.4059  -23.7825   38.7993 C.ar      1 UNK         0.5567 
     21 C21       -19.1199  -21.0065   38.0324 C.2       1 UNK         0.5850 
     22 C22       -23.7457  -16.3872   38.5728 C.3       1 UNK         0.1100 
     23 C23       -19.9937  -14.9875   39.0196 C.3       1 UNK         0.1100 
     24 C24       -19.5823  -22.1733   37.1381 C.3       1 UNK         0.0800 
     25 N25       -18.4625  -24.2906   37.4191 N.2       1 UNK        -0.2833 
     26 N26       -19.4959  -23.4635   37.8373 N.pl3     1 UNK        -0.1934 
     27 O27       -21.3495  -23.0507   39.0863 O.2       1 UNK        -0.5000 
     28 O28       -18.0072  -21.0685   38.5583 O.2       1 UNK        -0.4700 
     29 O29       -22.3284  -16.2905   38.5828 O.3       1 UNK        -0.2850 
     30 O30       -19.3815  -16.2368   38.7444 O.3       1 UNK        -0.2850 
     31 H31       -12.9346  -30.5378   36.0546 H         1 UNK         0.1150 
     32 H32       -14.5516  -31.5215   37.6689 H         1 UNK         0.1150 
     33 H33       -13.1987  -28.1888   35.3012 H         1 UNK         0.1150 
     34 H34       -16.4349  -30.1607   38.5326 H         1 UNK         0.1150 
     35 H35       -14.4277  -26.0590   35.3634 H         1 UNK         0.1150 
     36 H36       -16.2877  -24.6904   36.2062 H         1 UNK         0.1150 
     37 H37       -21.9103  -20.8112   37.9605 H         1 UNK         0.1150 
     38 H38       -23.2426  -18.8219   38.1796 H         1 UNK         0.1150 
     39 H39       -17.6593  -28.0645   38.5851 H         1 UNK         0.1150 
     40 H40       -18.3130  -18.4802   38.4608 H         1 UNK         0.1150 
     41 H41       -18.9793  -26.8021   39.5734 H         1 UNK         0.1150 
     42 H42       -20.8090  -25.3790   40.2393 H         1 UNK         0.1150 
     43 H43       -24.1143  -16.7646   37.6183 H         1 UNK         0.0300 
     44 H44       -24.1731  -15.3953   38.7195 H         1 UNK         0.0300 
     45 H45       -24.1089  -17.0231   39.3815 H         1 UNK         0.0300 
     46 H46       -19.2179  -14.2510   39.2279 H         1 UNK         0.0300 
     47 H47       -20.5621  -14.6235   38.1632 H         1 UNK         0.0300 
     48 H48       -20.6354  -15.0388   39.9002 H         1 UNK         0.0300 
     49 H49       -20.5883  -22.0255   36.7494 H         1 UNK         0.0600 
     50 H50       -18.9359  -22.1781   36.2601 H         1 UNK         0.0600 
@<TRIPOS>BOND
     1    1    2 ar   
     2    1    3 ar   
     3    1   31 1    
     4    2    4 ar   
     5    2   32 1    
     6    3   11 ar   
     7    3   33 1    
     8    4   12 ar   
     9    4   34 1    
    10    5    6 ar   
    11    5   11 ar   
    12    5   35 1    
    13    6   13 ar   
    14    6   36 1    
    15    7    8 ar   
    16    7   14 ar   
    17    7   37 1    
    18    8   15 ar   
    19    8   38 1    
    20    9   12 ar   
    21    9   13 ar   
    22    9   39 1    
    23   10   14 ar   
    24   10   16 ar   
    25   10   40 1    
    26   11   12 ar   
    27   13   19 1    
    28   14   21 1    
    29   15   16 ar   
    30   15   29 1    
    31   16   30 1    
    32   17   18 ar   
    33   17   19 ar   
    34   17   41 1    
    35   18   20 ar   
    36   18   42 1    
    37   19   25 ar   
    38   20   26 ar   
    39   20   27 2    
    40   21   24 1    
    41   21   28 2    
    42   22   29 1    
    43   22   43 1    
    44   22   44 1    
    45   22   45 1    
    46   23   30 1    
    47   23   46 1    
    48   23   47 1    
    49   23   48 1    
    50   24   26 1    
    51   24   49 1    
    52   24   50 1    
    53   25   26 ar   
@<TRIPOS>SUBSTRUCTURE
     1 UNK         1 GROUP             0       ****    0 ROOT    
@<TRIPOS>MOLECULE
ZINC40353954_71
42   43    1
SMALL
USER_CHARGES


@<TRIPOS>ATOM
      1 C1        -48.9969  -46.0052   38.6270 C.ar      1 UNK        -0.1150 
      2 C2        -44.6328  -51.4579   38.3809 C.ar      1 UNK        -0.1150 
      3 C3        -45.4924  -49.8816   36.7375 C.ar      1 UNK        -0.1150 
      4 C4        -49.7115  -45.0652   37.8679 C.ar      1 UNK        -0.1150 
      5 C5        -44.6277  -50.4377   39.3507 C.ar      1 UNK        -0.1150 
      6 C6        -45.4859  -48.8620   37.7088 C.ar      1 UNK        -0.1150 
      7 C7        -47.6840  -45.7319   39.0656 C.ar      1 UNK        -0.1150 
      8 C8        -45.0670  -51.1803   37.0719 C.ar      1 UNK         0.1800 
      9 C9        -45.0525  -49.1328   39.0317 C.ar      1 UNK         0.0850 
     10 C10       -49.1397  -43.8284   37.5251 C.ar      1 UNK         0.0850 
     11 C11       -47.1018  -44.4713   38.7651 C.ar      1 UNK         0.0850 
     12 C12       -47.8114  -43.5430   37.9499 C.ar      1 UNK         0.0850 
     13 C13       -47.0026  -46.7830   39.8793 C.2       1 UNK         0.5370 
     14 C14       -49.7321  -41.5966   36.8257 C.3       1 UNK         0.1100 
     15 C15       -45.7023  -42.9180   39.9096 C.3       1 UNK         0.1100 
     16 C16       -46.2749  -42.6009   36.4748 C.3       1 UNK         0.1100 
     17 C17       -45.4683  -46.8754   39.7986 C.3       1 UNK         0.1880 
     18 N18       -45.0754  -52.1864   36.1107 N.pl3     1 UNK        -0.9000 
     19 O19       -47.6276  -47.6024   40.5564 O.2       1 UNK        -0.4700 
     20 O20       -49.9359  -43.0006   36.7603 O.3       1 UNK        -0.2850 
     21 O21       -45.8496  -44.1769   39.2612 O.3       1 UNK        -0.2850 
     22 O22       -47.1892  -42.3913   37.5404 O.3       1 UNK        -0.2850 
     23 O23       -45.0090  -48.2033   40.0500 O.3       1 UNK        -0.2850 
     24 H24       -49.4663  -46.9487   38.8717 H         1 UNK         0.1150 
     25 H25       -44.3019  -52.4489   38.6536 H         1 UNK         0.1150 
     26 H26       -45.8265  -49.6559   35.7358 H         1 UNK         0.1150 
     27 H27       -50.7155  -45.2948   37.5413 H         1 UNK         0.1150 
     28 H28       -44.2964  -50.6577   40.3546 H         1 UNK         0.1150 
     29 H29       -45.8236  -47.8840   37.4057 H         1 UNK         0.1150 
     30 H30       -48.9284  -41.2826   36.1599 H         1 UNK         0.0300 
     31 H31       -49.5188  -41.2586   37.8409 H         1 UNK         0.0300 
     32 H32       -50.6391  -41.0899   36.4967 H         1 UNK         0.0300 
     33 H33       -46.6355  -42.5615   40.3493 H         1 UNK         0.0300 
     34 H34       -44.9757  -43.0136   40.7162 H         1 UNK         0.0300 
     35 H35       -45.3244  -42.1620   39.2217 H         1 UNK         0.0300 
     36 H36       -45.8785  -41.6423   36.1409 H         1 UNK         0.0300 
     37 H37       -46.7652  -43.0753   35.6233 H         1 UNK         0.0300 
     38 H38       -45.4328  -43.2222   36.7817 H         1 UNK         0.0300 
     39 H39       -45.0523  -46.2285   40.5704 H         1 UNK         0.0300 
     40 H40       -45.0944  -46.5042   38.8451 H         1 UNK         0.0300 
     41 H41       -45.5086  -52.0408   35.2105 H         1 UNK         0.3600 
     42 H42       -44.9008  -53.1475   36.3668 H         1 UNK         0.3600 
@<TRIPOS>BOND
     1    1    4 ar   
     2    1    7 ar   
     3    1   24 1    
     4    2    5 ar   
     5    2    8 ar   
     6    2   25 1    
     7    3    6 ar   
     8    3    8 ar   
     9    3   26 1    
    10    4   10 ar   
    11    4   27 1    
    12    5    9 ar   
    13    5   28 1    
    14    6    9 ar   
    15    6   29 1    
    16    7   11 ar   
    17    7   13 1    
    18    8   18 1    
    19    9   23 1    
    20   10   12 ar   
    21   10   20 1    
    22   11   12 ar   
    23   11   21 1    
    24   12   22 1    
    25   13   17 1    
    26   13   19 2    
    27   14   20 1    
    28   14   30 1    
    29   14   31 1    
    30   14   32 1    
    31   15   21 1    
    32   15   33 1    
    33   15   34 1    
    34   15   35 1    
    35   16   22 1    
    36   16   36 1    
    37   16   37 1    
    38   16   38 1    
    39   17   23 1    
    40   17   39 1    
    41   17   40 1    
    42   18   41 1    
    43   18   42 1    
@<TRIPOS>SUBSTRUCTURE
     1 UNK         1 GROUP             0       ****    0 ROOT    
@<TRIPOS>MOLECULE
ZINC40538928_10
45   47    1
SMALL
USER_CHARGES


@<TRIPOS>ATOM
      1 C1         -4.7721   -9.4936   37.4501 C.ar      1 UNK        -0.1150 
      2 C2         -4.3130   -8.5607   36.5031 C.ar      1 UNK        -0.1150 
      3 C3         -7.6964   -5.9205   38.6656 C.ar      1 UNK        -0.1150 
      4 C4         -6.6651   -3.8918   39.5382 C.ar      1 UNK        -0.1150 
      5 C5         -4.6359   -6.7703   38.1198 C.ar      1 UNK        -0.1150 
      6 C6         -6.8390   -5.2902   39.5942 C.ar      1 UNK        -0.1150 
      7 C7         -5.1759   -9.0711   38.7341 C.ar      1 UNK        -0.1150 
      8 C8         -5.1446   -7.6905   39.0735 C.ar      1 UNK        -0.0383 
      9 C9         -8.3320   -5.1746   37.6452 C.ar      1 UNK         0.0850 
     10 C10        -7.3011   -3.1236   38.5340 C.ar      1 UNK         0.0850 
     11 C11        -8.1216   -3.7778   37.5882 C.ar      1 UNK         0.0850 
     12 C12        -4.2353   -7.2003   36.8423 C.ar      1 UNK         0.2200 
     13 C13        -6.1646   -6.0804   40.6848 C.2       1 UNK         0.6150 
     14 C14        -5.6007  -10.1326   39.7395 C.3       1 UNK        -0.0050 
     15 C15        -6.1425   -9.5608   41.0561 C.3       1 UNK        -0.1200 
     16 C16        -5.4232   -8.2660   41.4557 C.3       1 UNK        -0.0500 
     17 C17        -9.3297   -7.1434   36.6889 C.3       1 UNK         0.1100 
     18 C18        -6.3782   -1.0677   39.3725 C.3       1 UNK         0.1100 
     19 C19        -8.0277   -3.0323   35.3874 C.3       1 UNK         0.1100 
     20 N20        -5.5711   -7.2717   40.3831 N.am      1 UNK        -0.0317 
     21 O21        -6.1531   -5.6031   41.8206 O.2       1 UNK        -0.5000 
     22 O22        -9.1552   -5.7346   36.6896 O.3       1 UNK        -0.2850 
     23 O23        -7.1613   -1.7566   38.4099 O.3       1 UNK        -0.2850 
     24 O24        -8.7371   -3.0356   36.6141 O.3       1 UNK        -0.2850 
     25 F25        -3.7714   -6.3036   35.9414 F         1 UNK        -0.2200 
     26 H26        -4.8008  -10.5417   37.1890 H         1 UNK         0.1150 
     27 H27        -4.0013   -8.8859   35.5215 H         1 UNK         0.1150 
     28 H28        -7.8445   -6.9863   38.7467 H         1 UNK         0.1150 
     29 H29        -6.0325   -3.4290   40.2810 H         1 UNK         0.1150 
     30 H30        -4.5448   -5.7184   38.3459 H         1 UNK         0.1150 
     31 H31        -6.3373  -10.7984   39.2877 H         1 UNK         0.0600 
     32 H32        -4.7220  -10.7424   39.9537 H         1 UNK         0.0600 
     33 H33        -7.2037   -9.3379   40.9352 H         1 UNK         0.0600 
     34 H34        -6.0777  -10.3072   41.8486 H         1 UNK         0.0600 
     35 H35        -5.8153   -7.9297   42.4175 H         1 UNK         0.0600 
     36 H36        -4.3603   -8.4539   41.6127 H         1 UNK         0.0600 
     37 H37        -9.9743   -7.4253   35.8565 H         1 UNK         0.0300 
     38 H38        -9.8097   -7.4854   37.6067 H         1 UNK         0.0300 
     39 H39        -8.3794   -7.6637   36.5604 H         1 UNK         0.0300 
     40 H40        -6.3944   -0.0009   39.1503 H         1 UNK         0.0300 
     41 H41        -5.3377   -1.3939   39.3465 H         1 UNK         0.0300 
     42 H42        -6.7750   -1.2004   40.3800 H         1 UNK         0.0300 
     43 H43        -8.5512   -2.4061   34.6653 H         1 UNK         0.0300 
     44 H44        -7.9488   -4.0357   34.9670 H         1 UNK         0.0300 
     45 H45        -7.0226   -2.6278   35.5164 H         1 UNK         0.0300 
@<TRIPOS>BOND
     1    1    2 ar   
     2    1    7 ar   
     3    1   26 1    
     4    2   12 ar   
     5    2   27 1    
     6    3    6 ar   
     7    3    9 ar   
     8    3   28 1    
     9    4    6 ar   
    10    4   10 ar   
    11    4   29 1    
    12    5    8 ar   
    13    5   12 ar   
    14    5   30 1    
    15    6   13 1    
    16    7    8 ar   
    17    7   14 1    
    18    8   20 1    
    19    9   11 ar   
    20    9   22 1    
    21   10   11 ar   
    22   10   23 1    
    23   11   24 1    
    24   12   25 1    
    25   13   20 am   BACKBONE|DICT|INTERRES
    26   13   21 2    
    27   14   15 1    
    28   14   31 1    
    29   14   32 1    
    30   15   16 1    
    31   15   33 1    
    32   15   34 1    
    33   16   20 1    
    34   16   35 1    
    35   16   36 1    
    36   17   22 1    
    37   17   37 1    
    38   17   38 1    
    39   17   39 1    
    40   18   23 1    
    41   18   40 1    
    42   18   41 1    
    43   18   42 1    
    44   19   24 1    
    45   19   43 1    
    46   19   44 1    
    47   19   45 1    
@<TRIPOS>SUBSTRUCTURE
     1 UNK         1 GROUP             0       ****    0 ROOT    
@<TRIPOS>MOLECULE
ZINC40818915_149
49   51    1
SMALL
USER_CHARGES


@<TRIPOS>ATOM
      1 C1         -7.5909  -14.2446   36.2954 C.ar      1 UNK        -0.1150 
      2 C2         -7.7215  -12.9799   35.6885 C.ar      1 UNK        -0.1150 
      3 C3         -7.1055  -14.3490   37.6141 C.ar      1 UNK        -0.1150 
      4 C4         -7.3663  -11.8154   36.3981 C.ar      1 UNK        -0.1150 
      5 C5         -7.8649   -6.2213   38.3235 C.ar      1 UNK        -0.1150 
      6 C6         -9.2654   -5.0548   39.9399 C.ar      1 UNK        -0.1150 
      7 C7         -6.7493  -13.1846   38.3263 C.ar      1 UNK         0.0631 
      8 C8         -6.8779  -11.9137   37.7198 C.ar      1 UNK        -0.1150 
      9 C9         -8.3120   -6.0529   39.6534 C.ar      1 UNK        -0.1150 
     10 C10        -8.3860   -5.4247   37.2763 C.ar      1 UNK         0.0850 
     11 C11        -9.7889   -4.2351   38.9117 C.ar      1 UNK         0.0850 
     12 C12        -9.3408   -4.4266   37.5858 C.ar      1 UNK         0.0850 
     13 C13        -6.2408  -13.2563   39.7030 C.ar      1 UNK         0.1451 
     14 C14        -6.4918  -10.6877   38.5023 C.ar      1 UNK         0.6150 
     15 C15        -7.7628   -6.8955   40.7684 C.2       1 UNK         0.6150 
     16 C16        -7.1550   -6.6484   35.6079 C.3       1 UNK         0.1100 
     17 C17       -11.1584   -2.9985   40.4540 C.3       1 UNK         0.1100 
     18 C18        -8.9742   -2.6386   36.1276 C.3       1 UNK         0.1100 
     19 C19        -5.5810   -9.8181   40.6146 C.3       1 UNK         0.0800 
     20 C20        -6.7648   -9.1143   41.3040 C.3       1 UNK         0.0800 
     21 N21        -5.9100  -12.1826   40.3438 N.2       1 UNK        -0.2833 
     22 N22        -6.0200  -10.9268   39.7595 N.pl3     1 UNK        -0.1934 
     23 N23        -7.3435   -8.1142   40.4164 N.am      1 UNK        -0.5000 
     24 O24        -6.6176   -9.5581   38.0213 O.2       1 UNK        -0.5000 
     25 O25        -7.7569   -6.4945   41.9300 O.2       1 UNK        -0.5000 
     26 O26        -8.0147   -5.5720   35.9548 O.3       1 UNK        -0.2850 
     27 O27       -10.7174   -3.2367   39.1258 O.3       1 UNK        -0.2850 
     28 O28        -9.8673   -3.6357   36.5957 O.3       1 UNK        -0.2850 
     29 H29        -7.8643  -15.1355   35.7484 H         1 UNK         0.1150 
     30 H30        -8.0951  -12.9021   34.6772 H         1 UNK         0.1150 
     31 H31        -7.0091  -15.3230   38.0724 H         1 UNK         0.1150 
     32 H32        -7.4690  -10.8469   35.9285 H         1 UNK         0.1150 
     33 H33        -7.1150   -6.9676   38.1155 H         1 UNK         0.1150 
     34 H34        -9.5813   -4.9362   40.9656 H         1 UNK         0.1150 
     35 H35        -6.1421  -14.2282   40.1876 H         1 UNK         0.0685 
     36 H36        -7.0156   -6.6618   34.5271 H         1 UNK         0.0300 
     37 H37        -7.5806   -7.6109   35.8963 H         1 UNK         0.0300 
     38 H38        -6.1706   -6.5367   36.0646 H         1 UNK         0.0300 
     39 H39       -11.8705   -2.1733   40.4534 H         1 UNK         0.0300 
     40 H40       -10.3292   -2.7174   41.1050 H         1 UNK         0.0300 
     41 H41       -11.6656   -3.8709   40.8685 H         1 UNK         0.0300 
     42 H42        -9.5067   -1.9590   35.4626 H         1 UNK         0.0300 
     43 H43        -8.1428   -3.0668   35.5677 H         1 UNK         0.0300 
     44 H44        -8.5723   -2.0495   36.9533 H         1 UNK         0.0300 
     45 H45        -4.9140  -10.2102   41.3847 H         1 UNK         0.0600 
     46 H46        -4.9734   -9.1065   40.0514 H         1 UNK         0.0600 
     47 H47        -7.5282   -9.8294   41.6132 H         1 UNK         0.0600 
     48 H48        -6.4034   -8.6346   42.2159 H         1 UNK         0.0600 
     49 H49        -7.3995   -8.3596   39.4343 H         1 UNK         0.3000 
@<TRIPOS>BOND
     1    1    2 ar   
     2    1    3 ar   
     3    1   29 1    
     4    2    4 ar   
     5    2   30 1    
     6    3    7 ar   
     7    3   31 1    
     8    4    8 ar   
     9    4   32 1    
    10    5    9 ar   
    11    5   10 ar   
    12    5   33 1    
    13    6    9 ar   
    14    6   11 ar   
    15    6   34 1    
    16    7    8 ar   
    17    7   13 ar   
    18    8   14 ar   
    19    9   15 1    
    20   10   12 ar   
    21   10   26 1    
    22   11   12 ar   
    23   11   27 1    
    24   12   28 1    
    25   13   21 ar   
    26   13   35 1    
    27   14   22 ar   
    28   14   24 2    
    29   15   23 am   BACKBONE|DICT|INTERRES
    30   15   25 2    
    31   16   26 1    
    32   16   36 1    
    33   16   37 1    
    34   16   38 1    
    35   17   27 1    
    36   17   39 1    
    37   17   40 1    
    38   17   41 1    
    39   18   28 1    
    40   18   42 1    
    41   18   43 1    
    42   18   44 1    
    43   19   20 1    
    44   19   22 1    
    45   19   45 1    
    46   19   46 1    
    47   20   23 1    
    48   20   47 1    
    49   20   48 1    
    50   21   22 ar   
    51   23   49 1    
@<TRIPOS>SUBSTRUCTURE
     1 UNK         1 GROUP             0       ****    0 ROOT    
@<TRIPOS>MOLECULE
ZINC40819764_108
48   50    1
SMALL
USER_CHARGES


@<TRIPOS>ATOM
      1 C1        -11.2144  -22.1499   37.4524 C.ar      1 UNK        -0.2243 
      2 C2        -11.5150  -22.0784   36.0761 C.ar      1 UNK        -0.2222 
      3 C3        -11.2732  -20.8075   39.7095 C.ar      1 UNK        -0.2567 
      4 C4        -16.4588  -13.9211   38.2226 C.ar      1 UNK        -0.1150 
      5 C5        -14.7675  -12.8117   39.5652 C.ar      1 UNK        -0.1150 
      6 C6        -12.3109  -19.7949   36.3569 C.ar      1 UNK        -0.3541 
      7 C7        -11.7058  -19.5293   39.9458 C.ar      1 UNK        -0.1072 
      8 C8        -11.4558  -21.0508   38.3098 C.ar      1 UNK         0.1233 
      9 C9        -15.3371  -13.9986   39.0726 C.ar      1 UNK        -0.1150 
     10 C10       -12.0095  -19.8715   37.7291 C.ar      1 UNK         0.2860 
     11 C11       -16.9833  -12.6665   37.8253 C.ar      1 UNK         0.0850 
     12 C12       -15.2672  -11.5492   39.1981 C.ar      1 UNK         0.0850 
     13 C13       -16.3628  -11.4715   38.2877 C.ar      1 UNK         0.0850 
     14 C14       -12.0628  -20.9032   35.5296 C.ar      1 UNK         0.2271 
     15 C15       -14.7737  -15.3218   39.4943 C.2       1 UNK         0.6150 
     16 C16       -18.7924  -13.7256   36.6253 C.3       1 UNK         0.1100 
     17 C17       -15.2154   -9.2091   39.8250 C.3       1 UNK         0.1100 
     18 C18       -16.9488  -10.0364   36.4788 C.3       1 UNK         0.1100 
     19 C19       -12.6801  -17.6103   38.6416 C.3       1 UNK         0.0025 
     20 C20       -14.2159  -17.6071   38.7247 C.3       1 UNK         0.0800 
     21 N21       -12.1501  -18.9544   38.7615 N.pl3     1 UNK        -0.2434 
     22 N22       -14.7586  -16.2663   38.5463 N.am      1 UNK        -0.5000 
     23 O23       -14.2991  -15.4891   40.6148 O.2       1 UNK        -0.5000 
     24 O24       -18.0938  -12.5514   37.0120 O.3       1 UNK        -0.2850 
     25 O25       -14.5914  -10.4819   39.7568 O.3       1 UNK        -0.2850 
     26 O26       -16.8244  -10.2391   37.8804 O.3       1 UNK        -0.2850 
     27 Cl27      -12.4320  -20.8205   33.8482 Cl        1 UNK        -0.1800 
     28 H28       -10.7939  -23.0562   37.8610 H         1 UNK         0.1699 
     29 H29       -11.3253  -22.9269   35.4338 H         1 UNK         0.1489 
     30 H30       -10.8724  -21.5048   40.4302 H         1 UNK         0.1377 
     31 H31       -16.9157  -14.8409   37.8940 H         1 UNK         0.1150 
     32 H32       -13.9268  -12.8665   40.2430 H         1 UNK         0.1150 
     33 H33       -12.7270  -18.8943   35.9359 H         1 UNK         0.1796 
     34 H34       -11.7335  -18.9759   40.8756 H         1 UNK         0.1929 
     35 H35       -19.6567  -13.4456   36.0234 H         1 UNK         0.0300 
     36 H36       -19.1606  -14.2751   37.4927 H         1 UNK         0.0300 
     37 H37       -18.1679  -14.3807   36.0167 H         1 UNK         0.0300 
     38 H38       -15.1802   -8.6985   38.8625 H         1 UNK         0.0300 
     39 H39       -14.6759   -8.5872   40.5390 H         1 UNK         0.0300 
     40 H40       -16.2484   -9.2784   40.1688 H         1 UNK         0.0300 
     41 H41       -16.7044   -9.0004   36.2455 H         1 UNK         0.0300 
     42 H42       -17.9728  -10.2114   36.1490 H         1 UNK         0.0300 
     43 H43       -16.2754  -10.6717   35.9007 H         1 UNK         0.0300 
     44 H44       -12.3411  -17.1848   37.6962 H         1 UNK         0.0600 
     45 H45       -12.2494  -16.9940   39.4326 H         1 UNK         0.0600 
     46 H46       -14.6353  -18.2536   37.9535 H         1 UNK         0.0600 
     47 H47       -14.5431  -18.0153   39.6833 H         1 UNK         0.0600 
     48 H48       -15.1208  -16.0161   37.6403 H         1 UNK         0.3000 
@<TRIPOS>BOND
     1    1    2 ar   
     2    1    8 ar   
     3    1   28 1    
     4    2   14 ar   
     5    2   29 1    
     6    3    7 ar   
     7    3    8 ar   
     8    3   30 1    
     9    4    9 ar   
    10    4   11 ar   
    11    4   31 1    
    12    5    9 ar   
    13    5   12 ar   
    14    5   32 1    
    15    6   10 ar   
    16    6   14 ar   
    17    6   33 1    
    18    7   21 ar   
    19    7   34 1    
    20    8   10 ar   
    21    9   15 1    
    22   10   21 ar   
    23   11   13 ar   
    24   11   24 1    
    25   12   13 ar   
    26   12   25 1    
    27   13   26 1    
    28   14   27 1    
    29   15   22 am   BACKBONE|DICT|INTERRES
    30   15   23 2    
    31   16   24 1    
    32   16   35 1    
    33   16   36 1    
    34   16   37 1    
    35   17   25 1    
    36   17   38 1    
    37   17   39 1    
    38   17   40 1    
    39   18   26 1    
    40   18   41 1    
    41   18   42 1    
    42   18   43 1    
    43   19   20 1    
    44   19   21 1    
    45   19   44 1    
    46   19   45 1    
    47   20   22 1    
    48   20   46 1    
    49   20   47 1    
    50   22   48 1    
@<TRIPOS>SUBSTRUCTURE
     1 UNK         1 GROUP             0       ****    0 ROOT    
@<TRIPOS>MOLECULE
ZINC40819918_104
51   53    1
SMALL
USER_CHARGES


@<TRIPOS>ATOM
      1 C1        -12.8638  -21.2338   35.0826 C.ar      1 UNK        -0.0888 
      2 C2        -12.4029  -22.4704   35.5722 C.ar      1 UNK        -0.2222 
      3 C3        -12.9922  -20.1395   35.9569 C.ar      1 UNK        -0.3541 
      4 C4        -11.9455  -21.3568   39.2386 C.ar      1 UNK        -0.2567 
      5 C5        -16.6263  -14.0518   38.1896 C.ar      1 UNK        -0.1150 
      6 C6        -14.7901  -13.0848   39.4546 C.ar      1 UNK        -0.1150 
      7 C7        -12.2592  -20.0562   39.5312 C.ar      1 UNK        -0.1072 
      8 C8        -12.1890  -21.5351   37.8368 C.ar      1 UNK         0.1233 
      9 C9        -15.4641  -14.2210   38.9704 C.ar      1 UNK        -0.1150 
     10 C10       -12.0668  -22.6221   36.9352 C.ar      1 UNK        -0.1694 
     11 C11       -12.6572  -20.2924   37.3154 C.ar      1 UNK         0.2860 
     12 C12       -17.0897  -12.7562   37.8547 C.ar      1 UNK         0.0850 
     13 C13       -15.2316  -11.7842   39.1499 C.ar      1 UNK         0.0850 
     14 C14       -16.3729  -11.6198   38.3125 C.ar      1 UNK         0.0850 
     15 C15       -14.9655  -15.5881   39.3300 C.2       1 UNK         0.6150 
     16 C16       -11.5723  -23.9611   37.4454 C.3       1 UNK        -0.0650 
     17 C17       -19.0230  -13.6468   36.7208 C.3       1 UNK         0.1100 
     18 C18       -15.0409   -9.4815   39.8602 C.3       1 UNK         0.1100 
     19 C19       -16.6444  -10.0681   36.5674 C.3       1 UNK         0.1100 
     20 C20       -13.1074  -18.0180   38.3254 C.3       1 UNK         0.0025 
     21 C21       -14.6312  -17.8929   38.4897 C.3       1 UNK         0.0800 
     22 N22       -12.6882  -19.4043   38.3819 N.pl3     1 UNK        -0.2434 
     23 N23       -15.0744  -16.5099   38.3659 N.am      1 UNK        -0.5000 
     24 O24       -14.4372  -15.8120   40.4161 O.2       1 UNK        -0.5000 
     25 O25       -18.2258  -12.5354   37.1020 O.3       1 UNK        -0.2850 
     26 O26       -14.4669  -10.7682   39.6874 O.3       1 UNK        -0.2850 
     27 O27       -16.7986  -10.3652   37.9479 O.3       1 UNK        -0.2850 
     28 H28       -13.1159  -21.1272   34.0364 H         1 UNK         0.1359 
     29 H29       -12.3074  -23.3055   34.8920 H         1 UNK         0.1489 
     30 H30       -13.3410  -19.1887   35.5870 H         1 UNK         0.1796 
     31 H31       -11.5848  -22.1121   39.9207 H         1 UNK         0.1377 
     32 H32       -17.1599  -14.9306   37.8643 H         1 UNK         0.1150 
     33 H33       -13.9161  -13.2100   40.0788 H         1 UNK         0.1150 
     34 H34       -12.2117  -19.5360   40.4789 H         1 UNK         0.1929 
     35 H35       -11.3581  -24.6475   36.6259 H         1 UNK         0.0600 
     36 H36       -10.6578  -23.8325   38.0250 H         1 UNK         0.0600 
     37 H37       -12.3251  -24.4188   38.0877 H         1 UNK         0.0600 
     38 H38       -19.8972  -13.2905   36.1759 H         1 UNK         0.0300 
     39 H39       -19.3812  -14.1987   37.5911 H         1 UNK         0.0300 
     40 H40       -18.4774  -14.3217   36.0602 H         1 UNK         0.0300 
     41 H41       -15.0472   -8.9218   38.9248 H         1 UNK         0.0300 
     42 H42       -14.4379   -8.9157   40.5700 H         1 UNK         0.0300 
     43 H43       -16.0534   -9.5360   40.2632 H         1 UNK         0.0300 
     44 H44       -16.6404   -8.9867   36.4323 H         1 UNK         0.0300 
     45 H45       -17.4647  -10.4681   35.9723 H         1 UNK         0.0300 
     46 H46       -15.7031  -10.4540   36.1722 H         1 UNK         0.0300 
     47 H47       -12.7815  -17.5933   37.3752 H         1 UNK         0.0600 
     48 H48       -12.5871  -17.4645   39.1090 H         1 UNK         0.0600 
     49 H49       -15.1399  -18.4869   37.7298 H         1 UNK         0.0600 
     50 H50       -14.9407  -18.2965   39.4562 H         1 UNK         0.0600 
     51 H51       -15.4706  -16.2152   37.4881 H         1 UNK         0.3000 
@<TRIPOS>BOND
     1    1    2 ar   
     2    1    3 ar   
     3    1   28 1    
     4    2   10 ar   
     5    2   29 1    
     6    3   11 ar   
     7    3   30 1    
     8    4    7 ar   
     9    4    8 ar   
    10    4   31 1    
    11    5    9 ar   
    12    5   12 ar   
    13    5   32 1    
    14    6    9 ar   
    15    6   13 ar   
    16    6   33 1    
    17    7   22 ar   
    18    7   34 1    
    19    8   10 ar   
    20    8   11 ar   
    21    9   15 1    
    22   10   16 1    
    23   11   22 ar   
    24   12   14 ar   
    25   12   25 1    
    26   13   14 ar   
    27   13   26 1    
    28   14   27 1    
    29   15   23 am   BACKBONE|DICT|INTERRES
    30   15   24 2    
    31   16   35 1    
    32   16   36 1    
    33   16   37 1    
    34   17   25 1    
    35   17   38 1    
    36   17   39 1    
    37   17   40 1    
    38   18   26 1    
    39   18   41 1    
    40   18   42 1    
    41   18   43 1    
    42   19   27 1    
    43   19   44 1    
    44   19   45 1    
    45   19   46 1    
    46   20   21 1    
    47   20   22 1    
    48   20   47 1    
    49   20   48 1    
    50   21   23 1    
    51   21   49 1    
    52   21   50 1    
    53   23   51 1    
@<TRIPOS>SUBSTRUCTURE
     1 UNK         1 GROUP             0       ****    0 ROOT    
@<TRIPOS>MOLECULE
ZINC41194724_18
49   51    1
SMALL
USER_CHARGES


@<TRIPOS>ATOM
      1 C1         -6.7242   -3.9928   39.5352 C.ar      1 UNK        -0.1150 
      2 C2         -7.9431   -5.9161   38.6627 C.ar      1 UNK        -0.1150 
      3 C3         -7.0380   -5.3652   39.5954 C.ar      1 UNK        -0.1150 
      4 C4         -7.2660   -3.1730   38.5166 C.ar      1 UNK         0.0850 
      5 C5         -8.4881   -5.1179   37.6294 C.ar      1 UNK         0.0850 
      6 C6         -8.1342   -3.7503   37.5629 C.ar      1 UNK         0.0850 
      7 C7         -6.4651   -6.2073   40.6990 C.2       1 UNK         0.6150 
      8 C8         -3.2013   -7.8677   37.5741 C.3       1 UNK        -0.1200 
      9 C9         -3.5432   -9.3362   37.2774 C.3       1 UNK        -0.1200 
     10 C10        -3.7446   -7.4503   38.9489 C.3       1 UNK        -0.1200 
     11 C11        -5.0597   -9.5816   37.3423 C.3       1 UNK        -0.1200 
     12 C12        -5.4358   -8.3229   41.4184 C.3       1 UNK        -0.0500 
     13 C13        -5.8098   -9.7432   40.9683 C.3       1 UNK         0.1400 
     14 C14        -5.2680   -7.6916   39.0449 C.3       1 UNK         0.0100 
     15 C15        -5.6612   -9.1432   38.6883 C.3       1 UNK         0.1700 
     16 C16        -6.1949   -1.2027   39.3842 C.3       1 UNK         0.1100 
     17 C17        -9.7532   -6.9588   36.7343 C.3       1 UNK         0.1100 
     18 C18        -7.9543   -3.0441   35.3523 C.3       1 UNK         0.1100 
     19 N19        -5.7959   -7.3435   40.3802 N.am      1 UNK        -0.1400 
     20 O20        -6.6371   -5.8390   41.8601 O.2       1 UNK        -0.5000 
     21 O21        -5.2123  -10.0247   39.7094 O.3       1 UNK        -0.4000 
     22 O22        -6.9882   -1.8278   38.3864 O.3       1 UNK        -0.2850 
     23 O23        -9.3548   -5.5981   36.6690 O.3       1 UNK        -0.2850 
     24 O24        -8.6622   -2.9580   36.5768 O.3       1 UNK        -0.2850 
     25 H25        -6.0591   -3.5917   40.2854 H         1 UNK         0.1150 
     26 H26        -8.2001   -6.9599   38.7565 H         1 UNK         0.1150 
     27 H27        -2.1203   -7.7256   37.5439 H         1 UNK         0.0600 
     28 H28        -3.6187   -7.2253   36.7974 H         1 UNK         0.0600 
     29 H29        -3.1632   -9.6172   36.2947 H         1 UNK         0.0600 
     30 H30        -3.0410   -9.9832   37.9985 H         1 UNK         0.0600 
     31 H31        -3.2164   -8.0202   39.7133 H         1 UNK         0.0600 
     32 H32        -3.5176   -6.3997   39.1333 H         1 UNK         0.0600 
     33 H33        -5.5458   -9.0320   36.5356 H         1 UNK         0.0600 
     34 H34        -5.2756  -10.6359   37.1671 H         1 UNK         0.0600 
     35 H35        -5.9365   -8.1255   42.3679 H         1 UNK         0.0600 
     36 H36        -4.3689   -8.2588   41.6291 H         1 UNK         0.0600 
     37 H37        -5.4545  -10.4723   41.6969 H         1 UNK         0.0300 
     38 H38        -6.8930   -9.8599   40.9057 H         1 UNK         0.0300 
     39 H39        -5.7011   -7.0650   38.2687 H         1 UNK         0.0600 
     40 H40        -6.7477   -9.2218   38.6162 H         1 UNK         0.0300 
     41 H41        -6.1108   -0.1391   39.1618 H         1 UNK         0.0300 
     42 H42        -5.1854   -1.6149   39.4072 H         1 UNK         0.0300 
     43 H43        -6.6486   -1.2967   40.3719 H         1 UNK         0.0300 
     44 H44       -10.4377   -7.1715   35.9132 H         1 UNK         0.0300 
     45 H45       -10.2781   -7.1759   37.6654 H         1 UNK         0.0300 
     46 H46        -8.8995   -7.6303   36.6331 H         1 UNK         0.0300 
     47 H47        -8.4312   -2.4051   34.6096 H         1 UNK         0.0300 
     48 H48        -7.9458   -4.0626   34.9622 H         1 UNK         0.0300 
     49 H49        -6.9237   -2.7074   35.4728 H         1 UNK         0.0300 
@<TRIPOS>BOND
     1    1    3 ar   
     2    1    4 ar   
     3    1   25 1    
     4    2    3 ar   
     5    2    5 ar   
     6    2   26 1    
     7    3    7 1    
     8    4    6 ar   
     9    4   22 1    
    10    5    6 ar   
    11    5   23 1    
    12    6   24 1    
    13    7   19 am   BACKBONE|DICT|INTERRES
    14    7   20 2    
    15    8    9 1    
    16    8   10 1    
    17    8   27 1    
    18    8   28 1    
    19    9   11 1    
    20    9   29 1    
    21    9   30 1    
    22   10   14 1    
    23   10   31 1    
    24   10   32 1    
    25   11   15 1    
    26   11   33 1    
    27   11   34 1    
    28   12   13 1    
    29   12   19 1    
    30   12   35 1    
    31   12   36 1    
    32   13   21 1    
    33   13   37 1    
    34   13   38 1    
    35   14   15 1    
    36   14   19 1    
    37   14   39 1    
    38   15   21 1    
    39   15   40 1    
    40   16   22 1    
    41   16   41 1    
    42   16   42 1    
    43   16   43 1    
    44   17   23 1    
    45   17   44 1    
    46   17   45 1    
    47   17   46 1    
    48   18   24 1    
    49   18   47 1    
    50   18   48 1    
    51   18   49 1    
@<TRIPOS>SUBSTRUCTURE
     1 UNK         1 GROUP             0       ****    0 ROOT    
@<TRIPOS>MOLECULE
ZINC41306619_24
46   48    1
SMALL
USER_CHARGES


@<TRIPOS>ATOM
      1 C1         -4.6407   -7.4657   36.7278 C.ar      1 UNK        -0.1150 
      2 C2         -4.7424   -8.8510   36.5060 C.ar      1 UNK        -0.1150 
      3 C3         -4.9167   -6.9323   38.0013 C.ar      1 UNK        -0.1150 
      4 C4         -5.0823   -9.7062   37.5699 C.ar      1 UNK        -0.1150 
      5 C5         -6.6794   -3.8905   39.4820 C.ar      1 UNK        -0.1150 
      6 C6         -7.8147   -5.8855   38.6623 C.ar      1 UNK        -0.1150 
      7 C7         -6.9108   -5.2792   39.5626 C.ar      1 UNK        -0.1150 
      8 C8         -5.3215   -7.7778   39.0664 C.ar      1 UNK        -0.0383 
      9 C9         -5.3346   -9.1785   38.8501 C.ar      1 UNK         0.0850 
     10 C10        -7.3017   -3.1105   38.4785 C.ar      1 UNK         0.0850 
     11 C11        -8.4349   -5.1286   37.6404 C.ar      1 UNK         0.0850 
     12 C12        -8.1663   -3.7433   37.5575 C.ar      1 UNK         0.0850 
     13 C13        -6.2484   -6.0804   40.6518 C.2       1 UNK         0.6150 
     14 C14        -5.6555   -8.2433   41.4961 C.3       1 UNK        -0.0500 
     15 C15        -5.0247   -9.5913   41.1156 C.3       1 UNK         0.1700 
     16 C16        -5.2543  -10.6706   42.1782 C.3       1 UNK        -0.1800 
     17 C17        -6.3235   -1.0749   39.3027 C.3       1 UNK         0.1100 
     18 C18        -9.5224   -7.0683   36.7241 C.3       1 UNK         0.1100 
     19 C19        -8.0605   -3.0070   35.3546 C.3       1 UNK         0.1100 
     20 N20        -5.6966   -7.2935   40.3700 N.am      1 UNK        -0.0317 
     21 O21        -6.2233   -5.5971   41.7853 O.2       1 UNK        -0.5000 
     22 O22        -5.5670  -10.0467   39.8854 O.3       1 UNK        -0.2850 
     23 O23        -7.1060   -1.7527   38.3315 O.3       1 UNK        -0.2850 
     24 O24        -9.2942   -5.6670   36.7047 O.3       1 UNK        -0.2850 
     25 O25        -8.7683   -2.9921   36.5819 O.3       1 UNK        -0.2850 
     26 H26        -4.3562   -6.8090   35.9180 H         1 UNK         0.1150 
     27 H27        -4.5352   -9.2608   35.5280 H         1 UNK         0.1150 
     28 H28        -4.8268   -5.8644   38.1341 H         1 UNK         0.1150 
     29 H29        -5.1205  -10.7744   37.4141 H         1 UNK         0.1150 
     30 H30        -6.0124   -3.4448   40.2048 H         1 UNK         0.1150 
     31 H31        -8.0053   -6.9431   38.7626 H         1 UNK         0.1150 
     32 H32        -6.6783   -8.4085   41.8400 H         1 UNK         0.0600 
     33 H33        -5.1051   -7.8175   42.3374 H         1 UNK         0.0600 
     34 H34        -3.9477   -9.4600   40.9886 H         1 UNK         0.0300 
     35 H35        -6.3174  -10.8661   42.3197 H         1 UNK         0.0600 
     36 H36        -4.8356  -10.3728   43.1397 H         1 UNK         0.0600 
     37 H37        -4.7815  -11.6083   41.8857 H         1 UNK         0.0600 
     38 H38        -6.3127   -0.0091   39.0752 H         1 UNK         0.0300 
     39 H39        -5.2901   -1.4235   39.2962 H         1 UNK         0.0300 
     40 H40        -6.7400   -1.1932   40.3040 H         1 UNK         0.0300 
     41 H41       -10.1885   -7.3349   35.9037 H         1 UNK         0.0300 
     42 H42       -10.0023   -7.3809   37.6524 H         1 UNK         0.0300 
     43 H43        -8.5943   -7.6259   36.5895 H         1 UNK         0.0300 
     44 H44        -8.5737   -2.3758   34.6294 H         1 UNK         0.0300 
     45 H45        -8.0004   -4.0143   34.9404 H         1 UNK         0.0300 
     46 H46        -7.0485   -2.6193   35.4805 H         1 UNK         0.0300 
@<TRIPOS>BOND
     1    1    2 ar   
     2    1    3 ar   
     3    1   26 1    
     4    2    4 ar   
     5    2   27 1    
     6    3    8 ar   
     7    3   28 1    
     8    4    9 ar   
     9    4   29 1    
    10    5    7 ar   
    11    5   10 ar   
    12    5   30 1    
    13    6    7 ar   
    14    6   11 ar   
    15    6   31 1    
    16    7   13 1    
    17    8    9 ar   
    18    8   20 1    
    19    9   22 1    
    20   10   12 ar   
    21   10   23 1    
    22   11   12 ar   
    23   11   24 1    
    24   12   25 1    
    25   13   20 am   BACKBONE|DICT|INTERRES
    26   13   21 2    
    27   14   15 1    
    28   14   20 1    
    29   14   32 1    
    30   14   33 1    
    31   15   16 1    
    32   15   22 1    
    33   15   34 1    
    34   16   35 1    
    35   16   36 1    
    36   16   37 1    
    37   17   23 1    
    38   17   38 1    
    39   17   39 1    
    40   17   40 1    
    41   18   24 1    
    42   18   41 1    
    43   18   42 1    
    44   18   43 1    
    45   19   25 1    
    46   19   44 1    
    47   19   45 1    
    48   19   46 1    
@<TRIPOS>SUBSTRUCTURE
     1 UNK         1 GROUP             0       ****    0 ROOT    
@<TRIPOS>MOLECULE
ZINC41306622_5
46   48    1
SMALL
USER_CHARGES


@<TRIPOS>ATOM
      1 C1         -4.2728   -7.3078   36.8493 C.ar      1 UNK        -0.1150 
      2 C2         -4.3240   -8.6878   36.5843 C.ar      1 UNK        -0.1150 
      3 C3         -4.6862   -6.8156   38.1012 C.ar      1 UNK        -0.1150 
      4 C4         -4.7756   -9.5753   37.5779 C.ar      1 UNK        -0.1150 
      5 C5         -7.7048   -5.8886   38.6419 C.ar      1 UNK        -0.1150 
      6 C6         -6.6706   -3.8699   39.5331 C.ar      1 UNK        -0.1150 
      7 C7         -6.8547   -5.2670   39.5831 C.ar      1 UNK        -0.1150 
      8 C8         -5.1841   -7.6972   39.0942 C.ar      1 UNK        -0.0383 
      9 C9         -5.2003   -9.0928   38.8307 C.ar      1 UNK         0.0850 
     10 C10        -8.3193   -5.1363   37.6132 C.ar      1 UNK         0.0850 
     11 C11        -7.2857   -3.0949   38.5212 C.ar      1 UNK         0.0850 
     12 C12        -8.0954   -3.7408   37.5606 C.ar      1 UNK         0.0850 
     13 C13        -6.2012   -6.0633   40.6816 C.2       1 UNK         0.6150 
     14 C14        -5.4739   -8.2532   41.4490 C.3       1 UNK        -0.0500 
     15 C15        -6.1805   -9.5298   40.9711 C.3       1 UNK         0.1700 
     16 C16        -6.1164  -10.6530   42.0103 C.3       1 UNK        -0.1800 
     17 C17        -9.3256   -7.0964   36.6465 C.3       1 UNK         0.1100 
     18 C18        -6.3698   -1.0461   39.3853 C.3       1 UNK         0.1100 
     19 C19        -8.0025   -3.0522   35.3380 C.3       1 UNK         0.1100 
     20 N20        -5.6030   -7.2504   40.3894 N.am      1 UNK        -0.0317 
     21 O21        -6.2141   -5.5943   41.8205 O.2       1 UNK        -0.5000 
     22 O22        -5.5848  -10.0203   39.7742 O.3       1 UNK        -0.2850 
     23 O23        -9.1347   -5.6894   36.6469 O.3       1 UNK        -0.2850 
     24 O24        -7.1323   -1.7288   38.4018 O.3       1 UNK        -0.2850 
     25 O25        -8.6854   -2.9880   36.5783 O.3       1 UNK        -0.2850 
     26 H26        -3.9073   -6.6258   36.0947 H         1 UNK         0.1150 
     27 H27        -4.0001   -9.0685   35.6263 H         1 UNK         0.1150 
     28 H28        -4.6098   -5.7537   38.2828 H         1 UNK         0.1150 
     29 H29        -4.7905  -10.6377   37.3833 H         1 UNK         0.1150 
     30 H30        -7.8627   -6.9533   38.7191 H         1 UNK         0.1150 
     31 H31        -6.0454   -3.4137   40.2861 H         1 UNK         0.1150 
     32 H32        -5.9037   -7.9367   42.4013 H         1 UNK         0.0600 
     33 H33        -4.4156   -8.4424   41.6328 H         1 UNK         0.0600 
     34 H34        -7.2290   -9.3079   40.7630 H         1 UNK         0.0300 
     35 H35        -5.0844  -10.9333   42.2234 H         1 UNK         0.0600 
     36 H36        -6.6342  -11.5428   41.6514 H         1 UNK         0.0600 
     37 H37        -6.5843  -10.3519   42.9477 H         1 UNK         0.0600 
     38 H38        -9.9610   -7.3724   35.8050 H         1 UNK         0.0300 
     39 H39        -9.8234   -7.4304   37.5577 H         1 UNK         0.0300 
     40 H40        -8.3797   -7.6283   36.5331 H         1 UNK         0.0300 
     41 H41        -6.3730    0.0213   39.1645 H         1 UNK         0.0300 
     42 H42        -5.3311   -1.3793   39.3858 H         1 UNK         0.0300 
     43 H43        -6.7938   -1.1768   40.3819 H         1 UNK         0.0300 
     44 H44        -8.5060   -2.4152   34.6112 H         1 UNK         0.0300 
     45 H45        -7.9835   -4.0666   34.9377 H         1 UNK         0.0300 
     46 H46        -6.9755   -2.6982   35.4399 H         1 UNK         0.0300 
@<TRIPOS>BOND
     1    1    2 ar   
     2    1    3 ar   
     3    1   26 1    
     4    2    4 ar   
     5    2   27 1    
     6    3    8 ar   
     7    3   28 1    
     8    4    9 ar   
     9    4   29 1    
    10    5    7 ar   
    11    5   10 ar   
    12    5   30 1    
    13    6    7 ar   
    14    6   11 ar   
    15    6   31 1    
    16    7   13 1    
    17    8    9 ar   
    18    8   20 1    
    19    9   22 1    
    20   10   12 ar   
    21   10   23 1    
    22   11   12 ar   
    23   11   24 1    
    24   12   25 1    
    25   13   20 am   BACKBONE|DICT|INTERRES
    26   13   21 2    
    27   14   15 1    
    28   14   20 1    
    29   14   32 1    
    30   14   33 1    
    31   15   16 1    
    32   15   22 1    
    33   15   34 1    
    34   16   35 1    
    35   16   36 1    
    36   16   37 1    
    37   17   23 1    
    38   17   38 1    
    39   17   39 1    
    40   17   40 1    
    41   18   24 1    
    42   18   41 1    
    43   18   42 1    
    44   18   43 1    
    45   19   25 1    
    46   19   44 1    
    47   19   45 1    
    48   19   46 1    
@<TRIPOS>SUBSTRUCTURE
     1 UNK         1 GROUP             0       ****    0 ROOT    
@<TRIPOS>MOLECULE
ZINC41455159_49
47   49    1
SMALL
USER_CHARGES


@<TRIPOS>ATOM
      1 C1         -5.4010  -11.0739   37.2758 C.ar      1 UNK        -0.1150 
      2 C2         -4.0609   -9.1361   36.6647 C.ar      1 UNK        -0.1150 
      3 C3         -5.0626  -11.6877   36.0544 C.ar      1 UNK        -0.1150 
      4 C4         -3.7243   -9.7504   35.4423 C.ar      1 UNK        -0.1150 
      5 C5         -5.6294   -8.6723   40.9354 C.ar      1 UNK        -0.3200 
      6 C6         -4.8925   -9.7972   37.5930 C.ar      1 UNK         0.0731 
      7 C7         -4.2224  -11.0393   35.1277 C.ar      1 UNK         0.0850 
      8 C8         -5.8355   -7.5526   40.0791 C.ar      1 UNK         0.2230 
      9 C9         -5.2374   -9.6834   40.1042 C.ar      1 UNK         0.0560 
     10 C10        -6.2288   -6.2169   40.6710 C.2       1 UNK         0.6150 
     11 C11        -8.1533   -2.4899   37.1379 C.2       1 UNK         0.5000 
     12 C12        -7.4066   -4.0622   40.5030 C.3       1 UNK        -0.0500 
     13 C13        -7.6429   -5.7283   38.6641 C.3       1 UNK        -0.0500 
     14 C14        -7.4294   -2.9570   39.4248 C.3       1 UNK        -0.0500 
     15 C15        -8.6861   -4.7014   38.1872 C.3       1 UNK        -0.0500 
     16 C16        -4.8477  -11.0854   40.4440 C.3       1 UNK        -0.0650 
     17 C17        -8.8485   -2.9025   35.8419 C.3       1 UNK        -0.1800 
     18 C18        -3.1055  -11.0853   33.0046 C.3       1 UNK         0.1100 
     19 N19        -5.5599   -7.8578   38.8164 N.2       1 UNK        -0.5310 
     20 N20        -5.2264   -9.1670   38.8166 N.pl3     1 UNK         0.1189 
     21 N21        -7.0223   -5.3757   39.9541 N.am      1 UNK        -0.1400 
     22 N22        -8.1030   -3.3540   38.1795 N.am      1 UNK        -0.1400 
     23 O23        -5.8552   -5.9519   41.8163 O.2       1 UNK        -0.5000 
     24 O24        -7.6557   -1.3666   37.1943 O.2       1 UNK        -0.5000 
     25 O25        -3.9449  -11.7160   33.9607 O.3       1 UNK        -0.2850 
     26 H26        -6.0630  -11.5827   37.9592 H         1 UNK         0.1150 
     27 H27        -3.6802   -8.1517   36.8956 H         1 UNK         0.1150 
     28 H28        -5.4554  -12.6659   35.8192 H         1 UNK         0.1150 
     29 H29        -3.0837   -9.2089   34.7636 H         1 UNK         0.1150 
     30 H30        -5.7386   -8.7048   42.0097 H         1 UNK         0.1500 
     31 H31        -6.7378   -3.7359   41.3018 H         1 UNK         0.0600 
     32 H32        -8.3909   -4.1604   40.9624 H         1 UNK         0.0600 
     33 H33        -8.1116   -6.7119   38.7306 H         1 UNK         0.0600 
     34 H34        -6.8595   -5.7985   37.9078 H         1 UNK         0.0600 
     35 H35        -7.9018   -2.0593   39.8276 H         1 UNK         0.0600 
     36 H36        -6.4007   -2.6806   39.1840 H         1 UNK         0.0600 
     37 H37        -9.0583   -5.0195   37.2144 H         1 UNK         0.0600 
     38 H38        -9.5536   -4.7023   38.8489 H         1 UNK         0.0600 
     39 H39        -5.6815  -11.7696   40.2898 H         1 UNK         0.0600 
     40 H40        -4.0084  -11.4205   39.8340 H         1 UNK         0.0600 
     41 H41        -4.5447  -11.1592   41.4884 H         1 UNK         0.0600 
     42 H42        -9.8942   -3.1488   36.0245 H         1 UNK         0.0600 
     43 H43        -8.3473   -3.7592   35.3919 H         1 UNK         0.0600 
     44 H44        -8.8189   -2.0840   35.1220 H         1 UNK         0.0600 
     45 H45        -2.9813  -11.7446   32.1457 H         1 UNK         0.0300 
     46 H46        -2.1141  -10.8863   33.4134 H         1 UNK         0.0300 
     47 H47        -3.5426  -10.1533   32.6437 H         1 UNK         0.0300 
@<TRIPOS>BOND
     1    1    3 ar   
     2    1    6 ar   
     3    1   26 1    
     4    2    4 ar   
     5    2    6 ar   
     6    2   27 1    
     7    3    7 ar   
     8    3   28 1    
     9    4    7 ar   
    10    4   29 1    
    11    5    8 ar   
    12    5    9 ar   
    13    5   30 1    
    14    6   20 1    
    15    7   25 1    
    16    8   10 1    
    17    8   19 ar   
    18    9   16 1    
    19    9   20 ar   
    20   10   21 am   BACKBONE|DICT|INTERRES
    21   10   23 2    
    22   11   17 1    
    23   11   22 am   BACKBONE|DICT|INTERRES
    24   11   24 2    
    25   12   14 1    
    26   12   21 1    
    27   12   31 1    
    28   12   32 1    
    29   13   15 1    
    30   13   21 1    
    31   13   33 1    
    32   13   34 1    
    33   14   22 1    
    34   14   35 1    
    35   14   36 1    
    36   15   22 1    
    37   15   37 1    
    38   15   38 1    
    39   16   39 1    
    40   16   40 1    
    41   16   41 1    
    42   17   42 1    
    43   17   43 1    
    44   17   44 1    
    45   18   25 1    
    46   18   45 1    
    47   18   46 1    
    48   18   47 1    
    49   19   20 ar   
@<TRIPOS>SUBSTRUCTURE
     1 UNK         1 GROUP             0       ****    0 ROOT    
@<TRIPOS>MOLECULE
ZINC42161160_16
47   49    1
SMALL
USER_CHARGES


@<TRIPOS>ATOM
      1 C1         -7.2184   -4.7275   39.4975 C.ar      1 UNK        -0.1150 
      2 C2         -4.8698   -8.2361   36.9333 C.ar      1 UNK        -0.1150 
      3 C3         -5.3263   -7.7880   38.1858 C.ar      1 UNK        -0.1150 
      4 C4         -7.6884   -3.9056   38.4594 C.ar      1 UNK        -0.1150 
      5 C5         -8.2945   -6.6318   38.4444 C.ar      1 UNK        -0.1150 
      6 C6         -5.7056  -10.4651   37.4306 C.ar      1 UNK        -0.1150 
      7 C7         -7.4999   -6.1062   39.4866 C.ar      1 UNK        -0.1150 
      8 C8         -6.1688  -10.0227   38.6869 C.ar      1 UNK        -0.1150 
      9 C9         -5.0678   -9.5741   36.5470 C.ar      1 UNK        -0.1150 
     10 C10        -6.0151   -8.6616   39.0653 C.ar      1 UNK        -0.0383 
     11 C11        -8.4488   -4.4264   37.3932 C.ar      1 UNK         0.0850 
     12 C12        -8.7562   -5.8215   37.3749 C.ar      1 UNK         0.0850 
     13 C13        -7.0144   -6.9806   40.6153 C.2       1 UNK         0.6150 
     14 C14        -6.7933  -11.0469   39.6239 C.3       1 UNK        -0.0050 
     15 C15        -7.3845  -10.4400   40.9031 C.3       1 UNK        -0.1200 
     16 C16        -6.5636   -9.2413   41.3969 C.3       1 UNK        -0.0500 
     17 C17        -4.5738  -10.0568   35.1991 C.3       1 UNK        -0.0650 
     18 C18       -10.2905   -8.0719   34.8790 C.3       1 UNK        -0.1800 
     19 C19        -9.5898   -3.8471   35.3214 C.3       1 UNK         0.1100 
     20 C20        -9.5866   -7.7666   36.2019 C.3       1 UNK         0.1400 
     21 N21        -6.5103   -8.2192   40.3416 N.am      1 UNK        -0.0317 
     22 O22        -7.0736   -6.5285   41.7606 O.2       1 UNK        -0.5000 
     23 O23        -8.8181   -3.4816   36.4537 O.3       1 UNK        -0.2850 
     24 O24        -9.4915   -6.3549   36.3349 O.3       1 UNK        -0.2850 
     25 H25        -6.6415   -4.2982   40.3050 H         1 UNK         0.1150 
     26 H26        -4.3636   -7.5464   36.2732 H         1 UNK         0.1150 
     27 H27        -5.1434   -6.7577   38.4542 H         1 UNK         0.1150 
     28 H28        -7.4619   -2.8497   38.4768 H         1 UNK         0.1150 
     29 H29        -8.5262   -7.6846   38.4806 H         1 UNK         0.1150 
     30 H30        -5.8302  -11.5010   37.1490 H         1 UNK         0.1150 
     31 H31        -7.5545  -11.6195   39.0925 H         1 UNK         0.0600 
     32 H32        -6.0070  -11.7524   39.8957 H         1 UNK         0.0600 
     33 H33        -8.3981  -10.0948   40.6942 H         1 UNK         0.0600 
     34 H34        -7.4763  -11.2019   41.6779 H         1 UNK         0.0600 
     35 H35        -6.9941   -8.8801   42.3328 H         1 UNK         0.0600 
     36 H36        -5.5446   -9.5499   41.6336 H         1 UNK         0.0600 
     37 H37        -3.5227  -10.3389   35.2629 H         1 UNK         0.0600 
     38 H38        -5.1424  -10.9232   34.8602 H         1 UNK         0.0600 
     39 H39        -4.6750   -9.2735   34.4472 H         1 UNK         0.0600 
     40 H40       -11.2910   -7.6393   34.8620 H         1 UNK         0.0600 
     41 H41        -9.7328   -7.6602   34.0377 H         1 UNK         0.0600 
     42 H42       -10.3854   -9.1469   34.7253 H         1 UNK         0.0600 
     43 H43        -9.7759   -2.9588   34.7184 H         1 UNK         0.0300 
     44 H44       -10.5610   -4.2510   35.6096 H         1 UNK         0.0300 
     45 H45        -9.0605   -4.5616   34.6902 H         1 UNK         0.0300 
     46 H46        -8.5946   -8.2226   36.2033 H         1 UNK         0.0300 
     47 H47       -10.1620   -8.1892   37.0267 H         1 UNK         0.0300 
@<TRIPOS>BOND
     1    1    4 ar   
     2    1    7 ar   
     3    1   25 1    
     4    2    3 ar   
     5    2    9 ar   
     6    2   26 1    
     7    3   10 ar   
     8    3   27 1    
     9    4   11 ar   
    10    4   28 1    
    11    5    7 ar   
    12    5   12 ar   
    13    5   29 1    
    14    6    8 ar   
    15    6    9 ar   
    16    6   30 1    
    17    7   13 1    
    18    8   10 ar   
    19    8   14 1    
    20    9   17 1    
    21   10   21 1    
    22   11   12 ar   
    23   11   23 1    
    24   12   24 1    
    25   13   21 am   BACKBONE|DICT|INTERRES
    26   13   22 2    
    27   14   15 1    
    28   14   31 1    
    29   14   32 1    
    30   15   16 1    
    31   15   33 1    
    32   15   34 1    
    33   16   21 1    
    34   16   35 1    
    35   16   36 1    
    36   17   37 1    
    37   17   38 1    
    38   17   39 1    
    39   18   20 1    
    40   18   40 1    
    41   18   41 1    
    42   18   42 1    
    43   19   23 1    
    44   19   43 1    
    45   19   44 1    
    46   19   45 1    
    47   20   24 1    
    48   20   46 1    
    49   20   47 1    
@<TRIPOS>SUBSTRUCTURE
     1 UNK         1 GROUP             0       ****    0 ROOT    
@<TRIPOS>MOLECULE
ZINC42365591_123
50   52    1
SMALL
USER_CHARGES


@<TRIPOS>ATOM
      1 C1         -3.8639   -9.3065   37.3529 C.ar      1 UNK        -0.1150 
      2 C2         -2.7953   -9.4857   36.4524 C.ar      1 UNK        -0.1150 
      3 C3         -4.9588  -11.2779   36.4595 C.ar      1 UNK        -0.1150 
      4 C4         -7.4629   -5.8109   38.6211 C.ar      1 UNK        -0.1150 
      5 C5         -9.3982   -5.7473   40.0922 C.ar      1 UNK        -0.1150 
      6 C6         -4.9638  -10.1975   37.3724 C.ar      1 UNK         0.0000 
      7 C7         -2.8098  -10.5666   35.5493 C.ar      1 UNK        -0.1150 
      8 C8         -8.0832   -6.1694   39.8306 C.ar      1 UNK         0.2000 
      9 C9         -8.1491   -5.0465   37.6446 C.ar      1 UNK         0.0850 
     10 C10       -10.1072   -4.9779   39.1393 C.ar      1 UNK         0.0850 
     11 C11        -9.4912   -4.6439   37.9094 C.ar      1 UNK         0.0850 
     12 C12        -3.8959  -11.4634   35.5578 C.ar      1 UNK         0.2200 
     13 C13        -6.0859  -10.0027   38.3172 C.2       1 UNK         0.6647 
     14 C14        -7.2873   -9.1606   39.7709 C.2       1 UNK         0.5486 
     15 C15        -1.6657  -10.7721   34.5771 C.3       1 UNK        -0.0650 
     16 C16        -7.5682   -8.8890   42.2418 C.3       1 UNK        -0.1800 
     17 C17        -6.2319   -5.1089   36.1736 C.3       1 UNK         0.1100 
     18 C18       -12.0401   -4.8170   40.5683 C.3       1 UNK         0.1100 
     19 C19       -10.1118   -4.0948   35.6451 C.3       1 UNK         0.1100 
     20 C20        -7.8830   -8.3157   40.8560 C.3       1 UNK         0.2550 
     21 N21        -6.1168   -8.9421   39.1703 N.2       1 UNK        -0.7040 
     22 N22        -7.1117  -10.8442   38.3692 N.2       1 UNK        -0.4268 
     23 N23        -7.3860   -6.9464   40.7629 N.pl3     1 UNK        -0.7800 
     24 O24        -7.9267  -10.2835   39.3642 O.3       1 UNK        -0.1975 
     25 O25        -7.5496   -4.6621   36.4601 O.3       1 UNK        -0.2850 
     26 O26       -11.4010   -4.5343   39.3329 O.3       1 UNK        -0.2850 
     27 O27       -10.2654   -3.8982   37.0425 O.3       1 UNK        -0.2850 
     28 F28        -3.9200  -12.5081   34.6971 F         1 UNK        -0.2200 
     29 H29        -3.8376   -8.4735   38.0408 H         1 UNK         0.1150 
     30 H30        -1.9672   -8.7917   36.4611 H         1 UNK         0.1150 
     31 H31        -5.7803  -11.9791   36.4446 H         1 UNK         0.1150 
     32 H32        -6.4492   -6.1410   38.4568 H         1 UNK         0.1150 
     33 H33        -9.8441   -6.0200   41.0357 H         1 UNK         0.1150 
     34 H34        -1.0628  -11.6272   34.8840 H         1 UNK         0.0600 
     35 H35        -2.0497  -10.9683   33.5754 H         1 UNK         0.0600 
     36 H36        -1.0203   -9.8951   34.5268 H         1 UNK         0.0600 
     37 H37        -6.4932   -8.9284   42.4207 H         1 UNK         0.0600 
     38 H38        -8.0187   -8.2845   43.0291 H         1 UNK         0.0600 
     39 H39        -7.9567   -9.9034   42.3396 H         1 UNK         0.0600 
     40 H40        -5.9365   -4.7439   35.1900 H         1 UNK         0.0300 
     41 H41        -6.1737   -6.1981   36.1500 H         1 UNK         0.0300 
     42 H42        -5.5127   -4.7211   36.8963 H         1 UNK         0.0300 
     43 H43       -13.0381   -4.3789   40.5636 H         1 UNK         0.0300 
     44 H44       -11.4948   -4.3845   41.4081 H         1 UNK         0.0300 
     45 H45       -12.1532   -5.8909   40.7222 H         1 UNK         0.0300 
     46 H46       -11.0388   -3.8170   35.1439 H         1 UNK         0.0300 
     47 H47        -9.9033   -5.1361   35.3942 H         1 UNK         0.0300 
     48 H48        -9.3239   -3.4578   35.2427 H         1 UNK         0.0300 
     49 H49        -8.9658   -8.3305   40.7210 H         1 UNK         0.0600 
     50 H50        -6.4111   -7.0299   40.4942 H         1 UNK         0.3800 
@<TRIPOS>BOND
     1    1    2 ar   
     2    1    6 ar   
     3    1   29 1    
     4    2    7 ar   
     5    2   30 1    
     6    3    6 ar   
     7    3   12 ar   
     8    3   31 1    
     9    4    8 ar   
    10    4    9 ar   
    11    4   32 1    
    12    5    8 ar   
    13    5   10 ar   
    14    5   33 1    
    15    6   13 1    
    16    7   12 ar   
    17    7   15 1    
    18    8   23 1    
    19    9   11 ar   
    20    9   25 1    
    21   10   11 ar   
    22   10   26 1    
    23   11   27 1    
    24   12   28 1    
    25   13   21 1    
    26   13   22 2    
    27   14   20 1    
    28   14   21 2    
    29   14   24 1    
    30   15   34 1    
    31   15   35 1    
    32   15   36 1    
    33   16   20 1    
    34   16   37 1    
    35   16   38 1    
    36   16   39 1    
    37   17   25 1    
    38   17   40 1    
    39   17   41 1    
    40   17   42 1    
    41   18   26 1    
    42   18   43 1    
    43   18   44 1    
    44   18   45 1    
    45   19   27 1    
    46   19   46 1    
    47   19   47 1    
    48   19   48 1    
    49   20   23 1    
    50   20   49 1    
    51   22   24 1    
    52   23   50 1    
@<TRIPOS>SUBSTRUCTURE
     1 UNK         1 GROUP             0       ****    0 ROOT    
@<TRIPOS>MOLECULE
ZINC42365653_42
46   47    1
SMALL
USER_CHARGES


@<TRIPOS>ATOM
      1 C1         -6.0664  -15.0192   36.4495 C.ar      1 UNK        -0.1150 
      2 C2         -4.7850  -14.4597   36.2835 C.ar      1 UNK        -0.1150 
      3 C3         -9.5548   -7.2199   38.4774 C.ar      1 UNK        -0.1150 
      4 C4        -11.5273   -8.5727   38.9126 C.ar      1 UNK        -0.1150 
      5 C5         -5.5543  -12.3904   37.3272 C.ar      1 UNK        -0.1150 
      6 C6        -10.1411   -8.3683   39.0367 C.ar      1 UNK         0.2000 
      7 C7         -6.8443  -12.9510   37.5018 C.ar      1 UNK         0.0850 
      8 C8        -10.3357   -6.2640   37.7798 C.ar      1 UNK         0.0850 
      9 C9        -12.3344   -7.6325   38.2296 C.ar      1 UNK         0.0850 
     10 C10       -11.7421   -6.4728   37.6759 C.ar      1 UNK         0.0850 
     11 C11        -7.0893  -14.2650   37.0541 C.ar      1 UNK         0.2200 
     12 C12        -4.5309  -13.1458   36.7211 C.ar      1 UNK         0.1800 
     13 C13        -8.0009  -11.1086   38.7396 C.2       1 UNK         0.5000 
     14 C14        -9.8703  -11.5861   40.3832 C.3       1 UNK        -0.1800 
     15 C15        -8.3671   -4.9684   37.2422 C.3       1 UNK         0.1100 
     16 C16       -14.3333   -8.9152   38.6318 C.3       1 UNK         0.1100 
     17 C17       -12.3582   -4.2202   37.0819 C.3       1 UNK         0.1100 
     18 C18        -9.3845  -10.6740   39.2454 C.3       1 UNK         0.0625 
     19 N19        -7.9503  -12.2781   38.0878 N.am      1 UNK        -0.3850 
     20 N20        -9.3304   -9.2930   39.7058 N.pl3     1 UNK        -0.7025 
     21 O21        -7.0334  -10.3755   38.9496 O.2       1 UNK        -0.5000 
     22 O22        -9.7737   -5.1551   37.1758 O.3       1 UNK        -0.2850 
     23 O23       -13.6998   -7.7742   38.0743 O.3       1 UNK        -0.2850 
     24 O24       -12.6081   -5.6165   37.0251 O.3       1 UNK        -0.2850 
     25 F25        -8.3233  -14.8029   37.2078 F         1 UNK        -0.2200 
     26 Cl26       -2.9629  -12.4607   36.5092 Cl        1 UNK        -0.1800 
     27 H27        -6.2687  -16.0250   36.1128 H         1 UNK         0.1150 
     28 H28        -3.9970  -15.0342   35.8188 H         1 UNK         0.1150 
     29 H29        -8.4883   -7.0988   38.5820 H         1 UNK         0.1150 
     30 H30       -11.9547   -9.4564   39.3584 H         1 UNK         0.1150 
     31 H31        -5.3223  -11.3848   37.6422 H         1 UNK         0.1150 
     32 H32        -9.1873  -11.5562   41.2337 H         1 UNK         0.0600 
     33 H33        -9.9545  -12.6251   40.0634 H         1 UNK         0.0600 
     34 H34       -10.8524  -11.2767   40.7409 H         1 UNK         0.0600 
     35 H35        -8.1017   -4.0570   36.7065 H         1 UNK         0.0300 
     36 H36        -7.8308   -5.7933   36.7711 H         1 UNK         0.0300 
     37 H37        -8.0270   -4.8537   38.2721 H         1 UNK         0.0300 
     38 H38       -15.4016   -8.8706   38.4207 H         1 UNK         0.0300 
     39 H39       -14.2135   -8.9486   39.7156 H         1 UNK         0.0300 
     40 H40       -13.9497   -9.8379   38.1949 H         1 UNK         0.0300 
     41 H41       -13.2996   -3.6860   36.9562 H         1 UNK         0.0300 
     42 H42       -11.6979   -3.9057   36.2736 H         1 UNK         0.0300 
     43 H43       -11.9336   -3.9141   38.0392 H         1 UNK         0.0300 
     44 H44       -10.0708  -10.7684   38.4010 H         1 UNK         0.0600 
     45 H45        -8.8214  -12.7854   38.0366 H         1 UNK         0.3000 
     46 H46        -8.3447   -9.0380   39.7458 H         1 UNK         0.3800 
@<TRIPOS>BOND
     1    1    2 ar   
     2    1   11 ar   
     3    1   27 1    
     4    2   12 ar   
     5    2   28 1    
     6    3    6 ar   
     7    3    8 ar   
     8    3   29 1    
     9    4    6 ar   
    10    4    9 ar   
    11    4   30 1    
    12    5    7 ar   
    13    5   12 ar   
    14    5   31 1    
    15    6   20 1    
    16    7   11 ar   
    17    7   19 1    
    18    8   10 ar   
    19    8   22 1    
    20    9   10 ar   
    21    9   23 1    
    22   10   24 1    
    23   11   25 1    
    24   12   26 1    
    25   13   18 1    
    26   13   19 am   BACKBONE|DICT|INTERRES
    27   13   21 2    
    28   14   18 1    
    29   14   32 1    
    30   14   33 1    
    31   14   34 1    
    32   15   22 1    
    33   15   35 1    
    34   15   36 1    
    35   15   37 1    
    36   16   23 1    
    37   16   38 1    
    38   16   39 1    
    39   16   40 1    
    40   17   24 1    
    41   17   41 1    
    42   17   42 1    
    43   17   43 1    
    44   18   20 1    
    45   18   44 1    
    46   19   45 1    
    47   20   46 1    
@<TRIPOS>SUBSTRUCTURE
     1 UNK         1 GROUP             0       ****    0 ROOT    
@<TRIPOS>MOLECULE
ZINC43171710_25
47   49    1
SMALL
USER_CHARGES


@<TRIPOS>ATOM
      1 C1        -41.3915  -44.4753   37.6122 C.ar      1 UNK        -0.3038 
      2 C2        -40.9164  -45.3421   36.6050 C.ar      1 UNK        -0.1925 
      3 C3        -42.8419  -40.8539   39.4414 C.ar      1 UNK        -0.1150 
      4 C4        -44.0543  -42.7361   38.5051 C.ar      1 UNK        -0.1150 
      5 C5        -41.7254  -44.9702   38.8946 C.ar      1 UNK         0.2581 
      6 C6        -43.1666  -42.2229   39.4703 C.ar      1 UNK        -0.1150 
      7 C7        -42.2243  -44.4491   40.1445 C.2       1 UNK        -0.3877 
      8 C8        -41.5393  -46.3602   39.0976 C.ar      1 UNK         0.3230 
      9 C9        -40.7503  -46.7267   36.8250 C.ar      1 UNK         0.1270 
     10 C10       -43.3821  -39.9962   38.4523 C.ar      1 UNK         0.0850 
     11 C11       -44.5969  -41.9176   37.4991 C.ar      1 UNK         0.0850 
     12 C12       -41.0679  -47.2469   38.1127 C.ar      1 UNK         0.0210 
     13 C13       -44.2847  -40.5256   37.4862 C.ar      1 UNK         0.0850 
     14 C14       -42.2787  -45.5303   41.0017 C.2       1 UNK         0.1363 
     15 C15       -42.5876  -43.0895   40.5304 C.2       1 UNK         0.7000 
     16 C16       -42.6929  -45.6559   42.4332 C.3       1 UNK        -0.0650 
     17 C17       -40.1644  -48.8433   35.7897 C.3       1 UNK         0.1100 
     18 C18       -42.1486  -38.1129   39.3262 C.3       1 UNK         0.1100 
     19 C19       -45.7187  -42.0083   35.3514 C.3       1 UNK         0.1100 
     20 C20       -45.4706  -38.5163   36.9811 C.3       1 UNK         0.1100 
     21 O21       -42.4222  -42.6539   41.6691 O.2       1 UNK        -0.4700 
     22 O22       -41.8836  -46.6911   40.3912 O.3       1 UNK        -0.3115 
     23 O23       -40.9406  -48.5616   38.4718 O.3       1 UNK        -0.5850 
     24 O24       -40.2800  -47.4307   35.7347 O.3       1 UNK        -0.3000 
     25 O25       -43.0478  -38.6586   38.3717 O.3       1 UNK        -0.2850 
     26 O26       -45.4294  -42.5797   36.6181 O.3       1 UNK        -0.2850 
     27 O27       -44.8501  -39.7126   36.5281 O.3       1 UNK        -0.2850 
     28 H28       -41.5041  -43.4235   37.3919 H         1 UNK         0.1930 
     29 H29       -40.6729  -44.9422   35.6305 H         1 UNK         0.1571 
     30 H30       -42.1619  -40.4848   40.1947 H         1 UNK         0.1150 
     31 H31       -44.3269  -43.7818   38.5198 H         1 UNK         0.1150 
     32 H32       -43.6922  -45.2475   42.5860 H         1 UNK         0.0600 
     33 H33       -42.0061  -45.1123   43.0828 H         1 UNK         0.0600 
     34 H34       -42.7047  -46.6978   42.7552 H         1 UNK         0.0600 
     35 H35       -39.8416  -49.2114   34.8163 H         1 UNK         0.0300 
     36 H36       -39.4153  -49.1554   36.5179 H         1 UNK         0.0300 
     37 H37       -41.1209  -49.3163   36.0145 H         1 UNK         0.0300 
     38 H38       -42.0067  -37.0523   39.1185 H         1 UNK         0.0300 
     39 H39       -42.5415  -38.1987   40.3402 H         1 UNK         0.0300 
     40 H40       -41.1699  -38.5915   39.2729 H         1 UNK         0.0300 
     41 H41       -46.4623  -41.2155   35.4343 H         1 UNK         0.0300 
     42 H42       -46.1385  -42.7772   34.7037 H         1 UNK         0.0300 
     43 H43       -44.8226  -41.6246   34.8616 H         1 UNK         0.0300 
     44 H44       -46.3381  -38.3048   36.3562 H         1 UNK         0.0300 
     45 H45       -44.7919  -37.6679   36.8921 H         1 UNK         0.0300 
     46 H46       -45.8181  -38.5875   38.0133 H         1 UNK         0.0300 
     47 H47       -41.1962  -48.6848   39.3758 H         1 UNK         0.4350 
@<TRIPOS>BOND
     1    1    2 ar   
     2    1    5 ar   
     3    1   28 1    
     4    2    9 ar   
     5    2   29 1    
     6    3    6 ar   
     7    3   10 ar   
     8    3   30 1    
     9    4    6 ar   
    10    4   11 ar   
    11    4   31 1    
    12    5    7 1    
    13    5    8 ar   
    14    6   15 1    
    15    7   14 2    
    16    7   15 1    
    17    8   12 ar   
    18    8   22 1    
    19    9   12 ar   
    20    9   24 1    
    21   10   13 ar   
    22   10   25 1    
    23   11   13 ar   
    24   11   26 1    
    25   12   23 1    
    26   13   27 1    
    27   14   16 1    
    28   14   22 1    
    29   15   21 2    
    30   16   32 1    
    31   16   33 1    
    32   16   34 1    
    33   17   24 1    
    34   17   35 1    
    35   17   36 1    
    36   17   37 1    
    37   18   25 1    
    38   18   38 1    
    39   18   39 1    
    40   18   40 1    
    41   19   26 1    
    42   19   41 1    
    43   19   42 1    
    44   19   43 1    
    45   20   27 1    
    46   20   44 1    
    47   20   45 1    
    48   20   46 1    
    49   23   47 1    
@<TRIPOS>SUBSTRUCTURE
     1 UNK         1 GROUP             0       ****    0 ROOT    
@<TRIPOS>MOLECULE
ZINC43209651_10
35   35    1
SMALL
USER_CHARGES


@<TRIPOS>ATOM
      1 C1         -7.3828   -5.8821   38.2712 C.ar      1 UNK        -0.1150 
      2 C2         -6.4887   -3.9192   39.3998 C.ar      1 UNK        -0.1150 
      3 C3         -6.5451   -5.3252   39.2675 C.ar      1 UNK        -0.1150 
      4 C4         -8.1496   -5.0550   37.4150 C.ar      1 UNK         0.0850 
      5 C5         -7.2472   -3.0732   38.5565 C.ar      1 UNK         0.0850 
      6 C6         -8.0673   -3.6507   37.5635 C.ar      1 UNK         0.0850 
      7 C7         -5.7233   -6.1666   40.1967 C.2       1 UNK         0.5850 
      8 C8         -5.7370   -7.7111   40.0813 C.2       1 UNK         0.5100 
      9 C9         -6.6667  -10.1226   42.6902 C.3       1 UNK        -0.1800 
     10 C10        -9.0837   -6.9495   36.2537 C.3       1 UNK         0.1100 
     11 C11        -6.4473   -1.0845   39.6505 C.3       1 UNK         0.1100 
     12 C12        -8.3098   -2.7071   35.4382 C.3       1 UNK         0.1100 
     13 C13        -6.1682   -9.7086   41.3033 C.3       1 UNK         0.1900 
     14 O14        -5.0209   -5.6683   41.0805 O.2       1 UNK        -0.4700 
     15 O15        -5.4328   -8.2978   39.0392 O.2       1 UNK        -0.4300 
     16 O16        -8.9935   -5.5447   36.4384 O.3       1 UNK        -0.2850 
     17 O17        -7.2299   -1.6955   38.6358 O.3       1 UNK        -0.2850 
     18 O18        -8.8084   -2.8202   36.7610 O.3       1 UNK        -0.2850 
     19 O19        -6.1234   -8.2957   41.2300 O.3       1 UNK        -0.3300 
     20 H20        -7.4398   -6.9531   38.1653 H         1 UNK         0.1150 
     21 H21        -5.8503   -3.5007   40.1636 H         1 UNK         0.1150 
     22 H22        -6.0005   -9.7548   43.4710 H         1 UNK         0.0600 
     23 H23        -7.6633   -9.7260   42.8847 H         1 UNK         0.0600 
     24 H24        -6.7159  -11.2080   42.7765 H         1 UNK         0.0600 
     25 H25        -9.7748   -7.1602   35.4379 H         1 UNK         0.0300 
     26 H26        -9.4681   -7.4451   37.1461 H         1 UNK         0.0300 
     27 H27        -8.1178   -7.3800   35.9858 H         1 UNK         0.0300 
     28 H28        -6.5611   -0.0024   39.5883 H         1 UNK         0.0300 
     29 H29        -5.3875   -1.3116   39.5285 H         1 UNK         0.0300 
     30 H30        -6.7726   -1.3927   40.6452 H         1 UNK         0.0300 
     31 H31        -8.8668   -1.9359   34.9066 H         1 UNK         0.0300 
     32 H32        -8.4171   -3.6371   34.8802 H         1 UNK         0.0300 
     33 H33        -7.2575   -2.4191   35.4373 H         1 UNK         0.0300 
     34 H34        -6.8331  -10.1010   40.5320 H         1 UNK         0.0300 
     35 H35        -5.1743  -10.1202   41.1213 H         1 UNK         0.0300 
@<TRIPOS>BOND
     1    1    3 ar   
     2    1    4 ar   
     3    1   20 1    
     4    2    3 ar   
     5    2    5 ar   
     6    2   21 1    
     7    3    7 1    
     8    4    6 ar   
     9    4   16 1    
    10    5    6 ar   
    11    5   17 1    
    12    6   18 1    
    13    7    8 1    
    14    7   14 2    
    15    8   15 2    
    16    8   19 1    
    17    9   13 1    
    18    9   22 1    
    19    9   23 1    
    20    9   24 1    
    21   10   16 1    
    22   10   25 1    
    23   10   26 1    
    24   10   27 1    
    25   11   17 1    
    26   11   28 1    
    27   11   29 1    
    28   11   30 1    
    29   12   18 1    
    30   12   31 1    
    31   12   32 1    
    32   12   33 1    
    33   13   19 1    
    34   13   34 1    
    35   13   35 1    
@<TRIPOS>SUBSTRUCTURE
     1 UNK         1 GROUP             0       ****    0 ROOT    
@<TRIPOS>MOLECULE
ZINC43209895_8
38   39    1
SMALL
USER_CHARGES


@<TRIPOS>ATOM
      1 C1        -18.9637  -20.7594   39.9228 C.ar      1 UNK        -0.1150 
      2 C2        -18.7113  -19.4195   39.5717 C.ar      1 UNK        -0.1150 
      3 C3        -19.7839  -17.1233   37.7178 C.ar      1 UNK        -0.1150 
      4 C4        -18.1764  -21.7910   39.3781 C.ar      1 UNK        -0.1150 
      5 C5        -20.8186  -16.1779   37.6246 C.ar      1 UNK        -0.1150 
      6 C6        -16.8815  -20.1452   38.1338 C.ar      1 UNK        -0.1150 
      7 C7        -18.2859  -15.3732   38.4891 C.ar      1 UNK        -0.1150 
      8 C8        -17.6770  -19.1026   38.6595 C.ar      1 UNK        -0.1150 
      9 C9        -18.5066  -16.7288   38.1656 C.ar      1 UNK        -0.1150 
     10 C10       -17.1184  -21.4878   38.4909 C.ar      1 UNK         0.1350 
     11 C11       -20.6111  -14.8238   37.9528 C.ar      1 UNK         0.0850 
     12 C12       -19.3203  -14.4045   38.3987 C.ar      1 UNK         0.0850 
     13 C13       -17.3743  -17.6955   38.2683 C.2       1 UNK         0.7000 
     14 C14       -15.6553  -23.3469   38.6920 C.2       1 UNK         0.5100 
     15 C15       -14.8650  -24.3434   37.8586 C.3       1 UNK        -0.1800 
     16 C16       -21.6311  -12.6177   37.8630 C.3       1 UNK         0.1100 
     17 C17       -17.8136  -12.6703   39.1571 C.3       1 UNK         0.1100 
     18 O18       -16.2186  -17.3397   38.0352 O.2       1 UNK        -0.4700 
     19 O19       -15.6351  -23.3896   39.9218 O.2       1 UNK        -0.4300 
     20 O20       -16.3357  -22.4667   37.9254 O.3       1 UNK        -0.2150 
     21 O21       -21.7331  -14.0313   37.8018 O.3       1 UNK        -0.2850 
     22 O22       -19.1078  -13.0838   38.7419 O.3       1 UNK        -0.2850 
     23 H23       -19.7583  -20.9976   40.6155 H         1 UNK         0.1150 
     24 H24       -19.3156  -18.6380   40.0117 H         1 UNK         0.1150 
     25 H25       -19.9802  -18.1486   37.4374 H         1 UNK         0.1150 
     26 H26       -18.3764  -22.8164   39.6545 H         1 UNK         0.1150 
     27 H27       -21.7951  -16.4908   37.2842 H         1 UNK         0.1150 
     28 H28       -16.0776  -19.9140   37.4484 H         1 UNK         0.1150 
     29 H29       -17.2941  -15.1002   38.8163 H         1 UNK         0.1150 
     30 H30       -14.1833  -23.8184   37.1902 H         1 UNK         0.0600 
     31 H31       -15.5413  -24.9544   37.2616 H         1 UNK         0.0600 
     32 H32       -14.2822  -24.9983   38.5060 H         1 UNK         0.0600 
     33 H33       -20.8708  -12.2372   37.1796 H         1 UNK         0.0300 
     34 H34       -22.5835  -12.1806   37.5637 H         1 UNK         0.0300 
     35 H35       -21.4247  -12.2761   38.8778 H         1 UNK         0.0300 
     36 H36       -17.8301  -11.6008   39.3664 H         1 UNK         0.0300 
     37 H37       -17.0696  -12.8398   38.3774 H         1 UNK         0.0300 
     38 H38       -17.5061  -13.1781   40.0722 H         1 UNK         0.0300 
@<TRIPOS>BOND
     1    1    2 ar   
     2    1    4 ar   
     3    1   23 1    
     4    2    8 ar   
     5    2   24 1    
     6    3    5 ar   
     7    3    9 ar   
     8    3   25 1    
     9    4   10 ar   
    10    4   26 1    
    11    5   11 ar   
    12    5   27 1    
    13    6    8 ar   
    14    6   10 ar   
    15    6   28 1    
    16    7    9 ar   
    17    7   12 ar   
    18    7   29 1    
    19    8   13 1    
    20    9   13 1    
    21   10   20 1    
    22   11   12 ar   
    23   11   21 1    
    24   12   22 1    
    25   13   18 2    
    26   14   15 1    
    27   14   19 2    
    28   14   20 1    
    29   15   30 1    
    30   15   31 1    
    31   15   32 1    
    32   16   21 1    
    33   16   33 1    
    34   16   34 1    
    35   16   35 1    
    36   17   22 1    
    37   17   36 1    
    38   17   37 1    
    39   17   38 1    
@<TRIPOS>SUBSTRUCTURE
     1 UNK         1 GROUP             0       ****    0 ROOT    
@<TRIPOS>MOLECULE
ZINC43209896_222
38   39    1
SMALL
USER_CHARGES


@<TRIPOS>ATOM
      1 C1         -6.0059   -9.8151   41.3279 C.ar      1 UNK        -0.1150 
      2 C2         -6.3715   -8.4744   41.5560 C.ar      1 UNK        -0.1150 
      3 C3         -5.4797  -10.1989   40.0801 C.ar      1 UNK        -0.1150 
      4 C4         -5.6835   -7.9040   39.2883 C.ar      1 UNK        -0.1150 
      5 C5         -6.8442   -3.9123   39.6041 C.ar      1 UNK        -0.1150 
      6 C6         -8.0013   -5.8627   38.7008 C.ar      1 UNK        -0.1150 
      7 C7         -8.1774   -3.7127   37.5818 C.ar      1 UNK        -0.1150 
      8 C8         -6.2262   -7.5101   40.5338 C.ar      1 UNK        -0.1150 
      9 C9         -7.1538   -5.2877   39.6755 C.ar      1 UNK        -0.1150 
     10 C10        -5.3018   -9.2455   39.0578 C.ar      1 UNK         0.1350 
     11 C11        -7.3521   -3.1129   38.5526 C.ar      1 UNK         0.0850 
     12 C12        -8.5137   -5.0789   37.6401 C.ar      1 UNK         0.0850 
     13 C13        -6.6092   -6.0942   40.8032 C.2       1 UNK         0.7000 
     14 C14        -3.7024   -9.0774   37.3113 C.2       1 UNK         0.5100 
     15 C15        -3.3267   -9.6815   35.9674 C.3       1 UNK        -0.1800 
     16 C16        -6.2690   -1.1334   39.3743 C.3       1 UNK         0.1100 
     17 C17        -9.6835   -6.9402   36.6704 C.3       1 UNK         0.1100 
     18 O18        -6.4829   -5.6062   41.9265 O.2       1 UNK        -0.4700 
     19 O19        -3.0429   -8.1624   37.8034 O.2       1 UNK        -0.4300 
     20 O20        -4.7964   -9.6616   37.8485 O.3       1 UNK        -0.2150 
     21 O21        -7.0936   -1.7673   38.4072 O.3       1 UNK        -0.2850 
     22 O22        -9.3334   -5.5642   36.6444 O.3       1 UNK        -0.2850 
     23 H23        -6.1254  -10.5487   42.1123 H         1 UNK         0.1150 
     24 H24        -6.7668   -8.1848   42.5206 H         1 UNK         0.1150 
     25 H25        -5.2006  -11.2285   39.9095 H         1 UNK         0.1150 
     26 H26        -5.5412   -7.1729   38.5046 H         1 UNK         0.1150 
     27 H27        -6.2095   -3.4910   40.3701 H         1 UNK         0.1150 
     28 H28        -8.2524   -6.9091   38.7851 H         1 UNK         0.1150 
     29 H29        -8.5665   -3.1078   36.7760 H         1 UNK         0.1150 
     30 H30        -2.8142  -10.6318   36.1141 H         1 UNK         0.0600 
     31 H31        -2.6628   -9.0086   35.4247 H         1 UNK         0.0600 
     32 H32        -4.2179   -9.8521   35.3642 H         1 UNK         0.0600 
     33 H33        -6.1647   -0.0784   39.1216 H         1 UNK         0.0300 
     34 H34        -5.2688   -1.5685   39.3916 H         1 UNK         0.0300 
     35 H35        -6.7067   -1.1912   40.3719 H         1 UNK         0.0300 
     36 H36       -10.3233   -7.1641   35.8169 H         1 UNK         0.0300 
     37 H37       -10.2396   -7.1932   37.5740 H         1 UNK         0.0300 
     38 H38        -8.8017   -7.5781   36.5975 H         1 UNK         0.0300 
@<TRIPOS>BOND
     1    1    2 ar   
     2    1    3 ar   
     3    1   23 1    
     4    2    8 ar   
     5    2   24 1    
     6    3   10 ar   
     7    3   25 1    
     8    4    8 ar   
     9    4   10 ar   
    10    4   26 1    
    11    5    9 ar   
    12    5   11 ar   
    13    5   27 1    
    14    6    9 ar   
    15    6   12 ar   
    16    6   28 1    
    17    7   11 ar   
    18    7   12 ar   
    19    7   29 1    
    20    8   13 1    
    21    9   13 1    
    22   10   20 1    
    23   11   21 1    
    24   12   22 1    
    25   13   18 2    
    26   14   15 1    
    27   14   19 2    
    28   14   20 1    
    29   15   30 1    
    30   15   31 1    
    31   15   32 1    
    32   16   21 1    
    33   16   33 1    
    34   16   34 1    
    35   16   35 1    
    36   17   22 1    
    37   17   36 1    
    38   17   37 1    
    39   17   38 1    
@<TRIPOS>SUBSTRUCTURE
     1 UNK         1 GROUP             0       ****    0 ROOT    
@<TRIPOS>MOLECULE
ZINC43210449_104
38   40    1
SMALL
USER_CHARGES


@<TRIPOS>ATOM
      1 C1         -5.6221   -8.6518   40.7017 C.2       1 UNK        -0.0738 
      2 C2         -4.9410   -9.6653   39.9634 C.2       1 UNK        -0.0738 
      3 C3         -6.7814   -3.8933   39.6381 C.ar      1 UNK        -0.1150 
      4 C4         -7.6360   -5.7870   38.3577 C.ar      1 UNK        -0.1150 
      5 C5         -8.0538   -3.5156   37.6018 C.ar      1 UNK        -0.1150 
      6 C6         -6.9077   -5.2878   39.4611 C.ar      1 UNK        -0.1150 
      7 C7         -7.3514   -2.9941   38.7056 C.ar      1 UNK         0.0850 
      8 C8         -8.2066   -4.9026   37.4121 C.ar      1 UNK         0.0850 
      9 C9         -5.7123   -7.4648   40.0219 C.2       1 UNK        -0.1787 
     10 C10        -4.5015   -9.2440   38.7333 C.2       1 UNK        -0.1787 
     11 C11        -6.3057   -6.2014   40.4703 C.2       1 UNK         0.7000 
     12 C12        -4.5334  -10.1035   35.6137 C.3       1 UNK         0.1400 
     13 C13        -5.3454  -11.0180   36.5214 C.3       1 UNK         0.1400 
     14 C14        -3.7401  -10.0570   37.7225 C.3       1 UNK         0.4150 
     15 C15        -6.5664   -1.0677   39.9046 C.3       1 UNK         0.1100 
     16 C16        -9.0429   -6.7015   36.0588 C.3       1 UNK         0.1100 
     17 O17        -6.3034   -5.9199   41.6687 O.2       1 UNK        -0.4700 
     18 O18        -3.7321   -9.3658   36.5163 O.3       1 UNK        -0.4000 
     19 O19        -4.4196  -11.2574   37.5582 O.3       1 UNK        -0.4000 
     20 O20        -7.2666   -1.6221   38.8004 O.3       1 UNK        -0.2850 
     21 O21        -8.9140   -5.3084   36.3014 O.3       1 UNK        -0.2850 
     22 S22        -4.9003   -7.5597   38.4753 S.3       1 UNK         0.0328 
     23 H23        -6.0210   -8.8209   41.6921 H         1 UNK         0.1211 
     24 H24        -4.7949  -10.6636   40.3508 H         1 UNK         0.1211 
     25 H25        -6.2376   -3.5354   40.5001 H         1 UNK         0.1150 
     26 H26        -7.7468   -6.8557   38.2539 H         1 UNK         0.1150 
     27 H27        -8.4890   -2.8345   36.8854 H         1 UNK         0.1150 
     28 H28        -3.8830  -10.6903   34.9639 H         1 UNK         0.0300 
     29 H29        -5.1545   -9.4571   34.9931 H         1 UNK         0.0300 
     30 H30        -6.2258  -10.5050   36.9122 H         1 UNK         0.0300 
     31 H31        -5.6644  -11.9373   36.0297 H         1 UNK         0.0300 
     32 H32        -2.7215  -10.2361   38.0705 H         1 UNK         0.1000 
     33 H33        -6.5887    0.0198   39.8353 H         1 UNK         0.0300 
     34 H34        -5.5200   -1.3758   39.9086 H         1 UNK         0.0300 
     35 H35        -7.0302   -1.3471   40.8516 H         1 UNK         0.0300 
     36 H36        -9.5998   -6.8553   35.1347 H         1 UNK         0.0300 
     37 H37        -9.5927   -7.1959   36.8608 H         1 UNK         0.0300 
     38 H38        -8.0687   -7.1780   35.9394 H         1 UNK         0.0300 
@<TRIPOS>BOND
     1    1    2 1    
     2    1    9 2    
     3    1   23 1    
     4    2   10 2    
     5    2   24 1    
     6    3    6 ar   
     7    3    7 ar   
     8    3   25 1    
     9    4    6 ar   
    10    4    8 ar   
    11    4   26 1    
    12    5    7 ar   
    13    5    8 ar   
    14    5   27 1    
    15    6   11 1    
    16    7   20 1    
    17    8   21 1    
    18    9   11 1    
    19    9   22 1    
    20   10   14 1    
    21   10   22 1    
    22   11   17 2    
    23   12   13 1    
    24   12   18 1    
    25   12   28 1    
    26   12   29 1    
    27   13   19 1    
    28   13   30 1    
    29   13   31 1    
    30   14   18 1    
    31   14   19 1    
    32   14   32 1    
    33   15   20 1    
    34   15   33 1    
    35   15   34 1    
    36   15   35 1    
    37   16   21 1    
    38   16   36 1    
    39   16   37 1    
    40   16   38 1    
@<TRIPOS>SUBSTRUCTURE
     1 UNK         1 GROUP             0       ****    0 ROOT    
@<TRIPOS>MOLECULE
ZINC43267682_210
49   50    1
SMALL
USER_CHARGES


@<TRIPOS>ATOM
      1 C1         -5.5339   -9.9439   35.4285 C.ar      1 UNK        -0.1150 
      2 C2         -4.8699  -11.1839   35.4061 C.ar      1 UNK        -0.1150 
      3 C3         -8.3765   -6.5240   37.9279 C.ar      1 UNK        -0.1150 
      4 C4         -6.0849   -9.4611   36.6304 C.ar      1 UNK        -0.1150 
      5 C5         -8.9539   -5.5928   37.0506 C.ar      1 UNK        -0.1150 
      6 C6         -5.3082  -11.4542   37.7916 C.ar      1 UNK        -0.1150 
      7 C7         -7.3521   -4.6984   39.1585 C.ar      1 UNK        -0.1150 
      8 C8         -4.7576  -11.9426   36.5881 C.ar      1 UNK        -0.1150 
      9 C9         -7.5709   -6.0864   38.9932 C.ar      1 UNK         0.1066 
     10 C10        -5.9786  -10.2052   37.8222 C.ar      1 UNK         0.0850 
     11 C11        -8.7429   -4.2087   37.2023 C.ar      1 UNK         0.0850 
     12 C12        -7.9330   -3.7421   38.2823 C.ar      1 UNK         0.0850 
     13 C13        -6.4310   -7.0114   41.0335 C.2       1 UNK         0.8137 
     14 C14        -4.0406  -13.2772   36.5688 C.3       1 UNK        -0.0650 
     15 C15        -5.2727   -8.3001   42.7506 C.3       1 UNK        -0.1303 
     16 C16        -9.0977   -2.0504   36.1368 C.3       1 UNK         0.1100 
     17 C17        -6.9760   -1.9263   39.5646 C.3       1 UNK         0.1100 
     18 C18        -6.9344   -9.4461   41.3199 C.3       1 UNK        -0.0703 
     19 C19        -6.3098  -10.2926   40.1999 C.3       1 UNK         0.1400 
     20 N20        -7.0124   -7.0945   39.8262 N.am      1 UNK        -0.4727 
     21 N21        -6.1668   -8.2175   41.5922 N.am      1 UNK        -0.2219 
     22 O22        -6.0751   -5.9566   41.5550 O.2       1 UNK        -0.6163 
     23 O23        -9.3807   -3.4362   36.2502 O.3       1 UNK        -0.2850 
     24 O24        -7.7387   -2.3851   38.4565 O.3       1 UNK        -0.2850 
     25 O25        -6.5462   -9.6574   38.9516 O.3       1 UNK        -0.2850 
     26 H26        -5.6190   -9.3596   34.5239 H         1 UNK         0.1150 
     27 H27        -4.4479  -11.5470   34.4797 H         1 UNK         0.1150 
     28 H28        -8.5629   -7.5772   37.7746 H         1 UNK         0.1150 
     29 H29        -6.5865   -8.5050   36.6366 H         1 UNK         0.1150 
     30 H30        -9.5714   -5.9434   36.2370 H         1 UNK         0.1150 
     31 H31        -5.2066  -12.0572   38.6806 H         1 UNK         0.1150 
     32 H32        -6.7237   -4.3653   39.9655 H         1 UNK         0.1150 
     33 H33        -3.0044  -13.1519   36.8838 H         1 UNK         0.0600 
     34 H34        -4.5223  -13.9862   37.2428 H         1 UNK         0.0600 
     35 H35        -4.0448  -13.7106   35.5681 H         1 UNK         0.0600 
     36 H36        -5.7961   -7.9860   43.6546 H         1 UNK         0.0600 
     37 H37        -4.4042   -7.6504   42.6253 H         1 UNK         0.0600 
     38 H38        -4.8954   -9.3116   42.9027 H         1 UNK         0.0600 
     39 H39        -9.5841   -1.6613   35.2426 H         1 UNK         0.0300 
     40 H40        -8.0281   -1.8640   36.0305 H         1 UNK         0.0300 
     41 H41        -9.4908   -1.4912   36.9866 H         1 UNK         0.0300 
     42 H42        -6.9574   -0.8368   39.5598 H         1 UNK         0.0300 
     43 H43        -5.9427   -2.2716   39.5092 H         1 UNK         0.0300 
     44 H44        -7.4153   -2.2418   40.5122 H         1 UNK         0.0300 
     45 H45        -7.9755   -9.2150   41.0861 H         1 UNK         0.0600 
     46 H46        -6.9818  -10.0462   42.2297 H         1 UNK         0.0600 
     47 H47        -6.7745  -11.2798   40.1960 H         1 UNK         0.0300 
     48 H48        -5.2411  -10.4244   40.3799 H         1 UNK         0.0300 
     49 H49        -7.1061   -8.0458   39.4929 H         1 UNK         0.2912 
@<TRIPOS>BOND
     1    1    2 ar   
     2    1    4 ar   
     3    1   26 1    
     4    2    8 ar   
     5    2   27 1    
     6    3    5 ar   
     7    3    9 ar   
     8    3   28 1    
     9    4   10 ar   
    10    4   29 1    
    11    5   11 ar   
    12    5   30 1    
    13    6    8 ar   
    14    6   10 ar   
    15    6   31 1    
    16    7    9 ar   
    17    7   12 ar   
    18    7   32 1    
    19    8   14 1    
    20    9   20 1    
    21   10   25 1    
    22   11   12 ar   
    23   11   23 1    
    24   12   24 1    
    25   13   20 am   BACKBONE|DICT|INTERRES
    26   13   21 am   BACKBONE|DICT|INTERRES
    27   13   22 2    
    28   14   33 1    
    29   14   34 1    
    30   14   35 1    
    31   15   21 1    
    32   15   36 1    
    33   15   37 1    
    34   15   38 1    
    35   16   23 1    
    36   16   39 1    
    37   16   40 1    
    38   16   41 1    
    39   17   24 1    
    40   17   42 1    
    41   17   43 1    
    42   17   44 1    
    43   18   19 1    
    44   18   21 1    
    45   18   45 1    
    46   18   46 1    
    47   19   25 1    
    48   19   47 1    
    49   19   48 1    
    50   20   49 1    
@<TRIPOS>SUBSTRUCTURE
     1 UNK         1 GROUP             0       ****    0 ROOT    
@<TRIPOS>MOLECULE
ZINC44395968_162
53   55    1
SMALL
USER_CHARGES


@<TRIPOS>ATOM
      1 C1         -3.8777  -11.8886   35.4003 C.ar      1 UNK        -0.1150 
      2 C2         -4.9755  -12.5430   35.9913 C.ar      1 UNK        -0.1150 
      3 C3         -3.3060  -10.7643   36.0258 C.ar      1 UNK        -0.1150 
      4 C4         -5.5075  -12.0773   37.2104 C.ar      1 UNK        -0.1150 
      5 C5         -3.8306  -10.2899   37.2442 C.ar      1 UNK        -0.1150 
      6 C6         -7.3865   -4.1773   39.2209 C.ar      1 UNK        -0.1150 
      7 C7         -8.2377   -6.1424   38.0735 C.ar      1 UNK        -0.1150 
      8 C8         -4.9362  -10.9461   37.8411 C.ar      1 UNK         0.0631 
      9 C9         -7.3739   -5.5771   39.0291 C.ar      1 UNK         0.0850 
     10 C10        -8.2340   -3.3369   38.4552 C.ar      1 UNK         0.0850 
     11 C11        -9.0918   -5.3291   37.2927 C.ar      1 UNK         0.0850 
     12 C12        -9.0741   -3.9259   37.4662 C.ar      1 UNK         0.0850 
     13 C13        -6.5544  -11.1147   39.8690 C.ar      1 UNK        -0.2947 
     14 C14        -7.0289  -10.5587   41.0065 C.ar      1 UNK        -0.1717 
     15 C15        -5.4931  -10.4423   39.1303 C.ar      1 UNK         0.3933 
     16 C16        -6.5079   -9.3006   41.5304 C.ar      1 UNK         0.5567 
     17 C17        -5.5656   -6.2619   40.6504 C.2       1 UNK         0.5000 
     18 C18        -3.3646   -7.4317   40.7820 C.3       1 UNK        -0.1800 
     19 C19        -7.4818   -1.3824   39.6650 C.3       1 UNK         0.1100 
     20 C20       -10.0595   -7.2382   36.1843 C.3       1 UNK         0.1100 
     21 C21        -9.5518   -1.9200   36.2176 C.3       1 UNK         0.1100 
     22 C22        -4.8472   -7.5053   41.2240 C.3       1 UNK         0.1400 
     23 N23        -5.0144   -9.3357   39.6059 N.2       1 UNK        -0.2833 
     24 N24        -5.4786   -8.7828   40.7971 N.pl3     1 UNK        -0.1934 
     25 N25        -6.5458   -6.4806   39.7533 N.am      1 UNK        -0.3850 
     26 O26        -6.9682   -8.7415   42.5200 O.2       1 UNK        -0.5000 
     27 O27        -5.2030   -5.1465   41.0193 O.2       1 UNK        -0.5000 
     28 O28        -8.2906   -1.9704   38.6554 O.3       1 UNK        -0.2850 
     29 O29        -9.9532   -5.8312   36.3368 O.3       1 UNK        -0.2850 
     30 O30        -9.9342   -3.2165   36.6509 O.3       1 UNK        -0.2850 
     31 H31        -3.4732  -12.2498   34.4651 H         1 UNK         0.1150 
     32 H32        -5.4116  -13.4047   35.5064 H         1 UNK         0.1150 
     33 H33        -2.4627  -10.2648   35.5704 H         1 UNK         0.1150 
     34 H34        -6.3525  -12.6016   37.6266 H         1 UNK         0.1150 
     35 H35        -3.3699   -9.4266   37.7031 H         1 UNK         0.1150 
     36 H36        -6.7473   -3.7444   39.9699 H         1 UNK         0.1150 
     37 H37        -8.2301   -7.2129   37.9442 H         1 UNK         0.1150 
     38 H38        -6.9636  -12.0539   39.5364 H         1 UNK         0.1150 
     39 H39        -7.8118  -11.0557   41.5600 H         1 UNK         0.1150 
     40 H40        -3.2552   -7.3613   39.6991 H         1 UNK         0.0600 
     41 H41        -2.8096   -8.3054   41.1236 H         1 UNK         0.0600 
     42 H42        -2.8776   -6.5545   41.2102 H         1 UNK         0.0600 
     43 H43        -7.6617   -0.3078   39.6866 H         1 UNK         0.0300 
     44 H44        -6.4200   -1.5328   39.4653 H         1 UNK         0.0300 
     45 H45        -7.7259   -1.7754   40.6530 H         1 UNK         0.0300 
     46 H46       -10.8056   -7.4601   35.4214 H         1 UNK         0.0300 
     47 H47       -10.3830   -7.7164   37.1099 H         1 UNK         0.0300 
     48 H48        -9.1157   -7.6768   35.8582 H         1 UNK         0.0300 
     49 H49       -10.0507   -1.6995   35.2743 H         1 UNK         0.0300 
     50 H50        -8.4774   -1.8405   36.0459 H         1 UNK         0.0300 
     51 H51        -9.8636   -1.1597   36.9336 H         1 UNK         0.0300 
     52 H52        -4.8670   -7.4236   42.3128 H         1 UNK         0.0600 
     53 H53        -6.6806   -7.4600   39.5560 H         1 UNK         0.3000 
@<TRIPOS>BOND
     1    1    2 ar   
     2    1    3 ar   
     3    1   31 1    
     4    2    4 ar   
     5    2   32 1    
     6    3    5 ar   
     7    3   33 1    
     8    4    8 ar   
     9    4   34 1    
    10    5    8 ar   
    11    5   35 1    
    12    6    9 ar   
    13    6   10 ar   
    14    6   36 1    
    15    7    9 ar   
    16    7   11 ar   
    17    7   37 1    
    18    8   15 1    
    19    9   25 1    
    20   10   12 ar   
    21   10   28 1    
    22   11   12 ar   
    23   11   29 1    
    24   12   30 1    
    25   13   14 ar   
    26   13   15 ar   
    27   13   38 1    
    28   14   16 ar   
    29   14   39 1    
    30   15   23 ar   
    31   16   24 ar   
    32   16   26 2    
    33   17   22 1    
    34   17   25 am   BACKBONE|DICT|INTERRES
    35   17   27 2    
    36   18   22 1    
    37   18   40 1    
    38   18   41 1    
    39   18   42 1    
    40   19   28 1    
    41   19   43 1    
    42   19   44 1    
    43   19   45 1    
    44   20   29 1    
    45   20   46 1    
    46   20   47 1    
    47   20   48 1    
    48   21   30 1    
    49   21   49 1    
    50   21   50 1    
    51   21   51 1    
    52   22   24 1    
    53   22   52 1    
    54   23   24 ar   
    55   25   53 1    
@<TRIPOS>SUBSTRUCTURE
     1 UNK         1 GROUP             0       ****    0 ROOT    
@<TRIPOS>MOLECULE
ZINC44442665_10
39   41    1
SMALL
USER_CHARGES


@<TRIPOS>ATOM
      1 C1         -6.3165  -13.7990   35.3602 C.ar      1 UNK        -0.1150 
      2 C2         -6.8967  -14.5636   36.3898 C.ar      1 UNK        -0.1150 
      3 C3         -6.2112  -12.4023   35.4983 C.ar      1 UNK        -0.1150 
      4 C4         -7.3711  -13.9327   37.5571 C.ar      1 UNK        -0.1150 
      5 C5         -6.6872  -11.7719   36.6648 C.ar      1 UNK        -0.1150 
      6 C6         -8.6117  -11.2232   41.1303 C.2       1 UNK        -0.3376 
      7 C7         -7.2704  -12.5296   37.7061 C.ar      1 UNK         0.0000 
      8 C8         -8.4605  -10.1550   40.2802 C.2       1 UNK         0.1693 
      9 C9         -7.7641  -11.8533   38.9083 C.2       1 UNK         0.3009 
     10 C10        -8.7196   -8.7386   40.7082 C.2       1 UNK         0.6150 
     11 C11       -10.7591   -5.0183   36.9613 C.2       1 UNK         0.5000 
     12 C12        -9.4603   -6.4630   40.1725 C.3       1 UNK        -0.0500 
     13 C13        -9.8525   -8.2811   38.5186 C.3       1 UNK        -0.0500 
     14 C14        -9.4169   -5.5381   38.9407 C.3       1 UNK        -0.0500 
     15 C15       -10.9020   -7.2918   37.9733 C.3       1 UNK        -0.0500 
     16 C16       -11.8392   -5.3933   35.9474 C.3       1 UNK        -0.1800 
     17 N17        -7.9395  -10.5332   39.0330 N.2       1 UNK        -0.4803 
     18 N18        -9.2865   -7.8803   39.8182 N.am      1 UNK        -0.1400 
     19 N19       -10.3847   -5.9180   37.9020 N.am      1 UNK        -0.1400 
     20 O20        -8.4601   -8.3998   41.8644 O.2       1 UNK        -0.5000 
     21 O21       -10.2711   -3.8916   36.8961 O.2       1 UNK        -0.5000 
     22 S22        -8.1867  -12.7349   40.3774 S.3       1 UNK         0.0010 
     23 H23        -5.9527  -14.2833   34.4653 H         1 UNK         0.1150 
     24 H24        -6.9794  -15.6358   36.2841 H         1 UNK         0.1150 
     25 H25        -5.7651  -11.8130   34.7103 H         1 UNK         0.1150 
     26 H26        -7.8167  -14.5408   38.3298 H         1 UNK         0.1150 
     27 H27        -6.6001  -10.6990   36.7608 H         1 UNK         0.1150 
     28 H28        -8.9428  -11.1924   42.1582 H         1 UNK         0.2317 
     29 H29        -8.6853   -6.1326   40.8674 H         1 UNK         0.0600 
     30 H30       -10.4092   -6.3487   40.6984 H         1 UNK         0.0600 
     31 H31       -10.3217   -9.2637   38.5914 H         1 UNK         0.0600 
     32 H32        -9.0356   -8.3741   37.8010 H         1 UNK         0.0600 
     33 H33        -9.5974   -4.5133   39.2724 H         1 UNK         0.0600 
     34 H34        -8.4179   -5.5462   38.5018 H         1 UNK         0.0600 
     35 H35       -11.2189   -7.6584   36.9968 H         1 UNK         0.0600 
     36 H36       -11.7886   -7.2956   38.6089 H         1 UNK         0.0600 
     37 H37       -12.7238   -5.7887   36.4460 H         1 UNK         0.0600 
     38 H38       -11.4625   -6.1323   35.2409 H         1 UNK         0.0600 
     39 H39       -12.1424   -4.5132   35.3801 H         1 UNK         0.0600 
@<TRIPOS>BOND
     1    1    2 ar   
     2    1    3 ar   
     3    1   23 1    
     4    2    4 ar   
     5    2   24 1    
     6    3    5 ar   
     7    3   25 1    
     8    4    7 ar   
     9    4   26 1    
    10    5    7 ar   
    11    5   27 1    
    12    6    8 2    
    13    6   22 1    
    14    6   28 1    
    15    7    9 1    
    16    8   10 1    
    17    8   17 1    
    18    9   17 2    
    19    9   22 1    
    20   10   18 am   BACKBONE|DICT|INTERRES
    21   10   20 2    
    22   11   16 1    
    23   11   19 am   BACKBONE|DICT|INTERRES
    24   11   21 2    
    25   12   14 1    
    26   12   18 1    
    27   12   29 1    
    28   12   30 1    
    29   13   15 1    
    30   13   18 1    
    31   13   31 1    
    32   13   32 1    
    33   14   19 1    
    34   14   33 1    
    35   14   34 1    
    36   15   19 1    
    37   15   35 1    
    38   15   36 1    
    39   16   37 1    
    40   16   38 1    
    41   16   39 1    
@<TRIPOS>SUBSTRUCTURE
     1 UNK         1 GROUP             0       ****    0 ROOT    
@<TRIPOS>MOLECULE
ZINC44843542_258
44   45    1
SMALL
USER_CHARGES


@<TRIPOS>ATOM
      1 C1        -10.8557   -7.8663   37.1907 C.ar      1 UNK        -0.1150 
      2 C2        -11.8956   -6.9252   37.1097 C.ar      1 UNK        -0.1150 
      3 C3         -9.5004   -6.2299   38.3655 C.ar      1 UNK        -0.1150 
      4 C4         -5.4775  -15.2946   36.3045 C.ar      1 UNK        -0.1150 
      5 C5         -7.5917  -14.5742   37.2825 C.ar      1 UNK        -0.1150 
      6 C6         -5.9335  -12.9184   36.6219 C.ar      1 UNK        -0.1150 
      7 C7         -9.6429   -7.5286   37.8287 C.ar      1 UNK        -0.1150 
      8 C8         -6.7368  -15.6096   36.8511 C.ar      1 UNK        -0.1150 
      9 C9         -5.0744  -13.9491   36.1884 C.ar      1 UNK        -0.1150 
     10 C10        -7.1979  -13.2241   37.1756 C.ar      1 UNK         0.2000 
     11 C11       -11.7681   -5.6358   37.6612 C.ar      1 UNK         0.0850 
     12 C12       -10.5425   -5.2676   38.2935 C.ar      1 UNK         0.0850 
     13 C13        -8.8287   -9.9401   37.8642 C.2       1 UNK        -0.1150 
     14 C14        -7.8684  -10.8681   37.6966 C.2       1 UNK        -0.0970 
     15 C15        -8.5122   -8.4967   37.9600 C.2       1 UNK         0.5850 
     16 C16        -7.1624  -17.0589   36.9720 C.3       1 UNK        -0.0650 
     17 C17        -3.7248  -13.6037   35.5927 C.3       1 UNK        -0.0650 
     18 C18       -13.0288   -3.6468   38.2566 C.3       1 UNK         0.1100 
     19 C19        -9.1603   -3.6271   39.4100 C.3       1 UNK         0.1100 
     20 N20        -8.0925  -12.2367   37.6125 N.pl3     1 UNK        -0.5717 
     21 O21        -7.3633   -8.1049   38.1738 O.2       1 UNK        -0.4700 
     22 O22       -12.8872   -4.8407   37.5038 O.3       1 UNK        -0.2850 
     23 O23       -10.3919   -3.9932   38.8042 O.3       1 UNK        -0.2850 
     24 H24       -11.0051   -8.8344   36.7368 H         1 UNK         0.1150 
     25 H25       -12.8180   -7.1944   36.6162 H         1 UNK         0.1150 
     26 H26        -8.5603   -5.9917   38.8394 H         1 UNK         0.1150 
     27 H27        -4.8226  -16.0876   35.9725 H         1 UNK         0.1150 
     28 H28        -8.5553  -14.8214   37.7022 H         1 UNK         0.1150 
     29 H29        -5.6089  -11.8956   36.5115 H         1 UNK         0.1150 
     30 H30        -9.8607  -10.2425   37.9376 H         1 UNK         0.1150 
     31 H31        -6.8302  -10.5740   37.6294 H         1 UNK         0.1150 
     32 H32        -6.4860  -17.5969   37.6368 H         1 UNK         0.0600 
     33 H33        -8.1729  -17.1481   37.3714 H         1 UNK         0.0600 
     34 H34        -7.1404  -17.5423   35.9950 H         1 UNK         0.0600 
     35 H35        -3.8515  -13.1765   34.5977 H         1 UNK         0.0600 
     36 H36        -3.2076  -12.8744   36.2169 H         1 UNK         0.0600 
     37 H37        -3.0892  -14.4856   35.5077 H         1 UNK         0.0600 
     38 H38       -14.0503   -3.2815   38.1535 H         1 UNK         0.0300 
     39 H39       -12.3677   -2.8627   37.8871 H         1 UNK         0.0300 
     40 H40       -12.8496   -3.8142   39.3193 H         1 UNK         0.0300 
     41 H41        -9.2219   -2.5930   39.7483 H         1 UNK         0.0300 
     42 H42        -8.3321   -3.6919   38.7030 H         1 UNK         0.0300 
     43 H43        -8.9444   -4.2443   40.2829 H         1 UNK         0.0300 
     44 H44        -9.0112  -12.5769   37.8561 H         1 UNK         0.3537 
@<TRIPOS>BOND
     1    1    2 ar   
     2    1    7 ar   
     3    1   24 1    
     4    2   11 ar   
     5    2   25 1    
     6    3    7 ar   
     7    3   12 ar   
     8    3   26 1    
     9    4    8 ar   
    10    4    9 ar   
    11    4   27 1    
    12    5    8 ar   
    13    5   10 ar   
    14    5   28 1    
    15    6    9 ar   
    16    6   10 ar   
    17    6   29 1    
    18    7   15 1    
    19    8   16 1    
    20    9   17 1    
    21   10   20 1    
    22   11   12 ar   
    23   11   22 1    
    24   12   23 1    
    25   13   14 2    
    26   13   15 1    
    27   13   30 1    
    28   14   20 1    
    29   14   31 1    
    30   15   21 2    
    31   16   32 1    
    32   16   33 1    
    33   16   34 1    
    34   17   35 1    
    35   17   36 1    
    36   17   37 1    
    37   18   22 1    
    38   18   38 1    
    39   18   39 1    
    40   18   40 1    
    41   19   23 1    
    42   19   41 1    
    43   19   42 1    
    44   19   43 1    
    45   20   44 1    
@<TRIPOS>SUBSTRUCTURE
     1 UNK         1 GROUP             0       ****    0 ROOT    
@<TRIPOS>MOLECULE
ZINC44843679_283
38   39    1
SMALL
USER_CHARGES


@<TRIPOS>ATOM
      1 C1        -10.5037   -7.8492   39.1783 C.ar      1 UNK        -0.1150 
      2 C2         -8.9622  -13.2649   36.4401 C.ar      1 UNK        -0.1150 
      3 C3        -11.1010   -7.1563   38.1094 C.ar      1 UNK        -0.1150 
      4 C4         -8.7995  -13.9808   35.2377 C.ar      1 UNK        -0.1150 
      5 C5        -11.4480   -9.9308   38.3520 C.ar      1 UNK        -0.1150 
      6 C6         -7.9691  -15.1166   37.6723 C.ar      1 UNK        -0.1150 
      7 C7        -10.6604   -9.2447   39.3049 C.ar      1 UNK        -0.1150 
      8 C8         -8.5428  -13.8277   37.6690 C.ar      1 UNK         0.2000 
      9 C9        -11.8723   -7.8477   37.1432 C.ar      1 UNK         0.0850 
     10 C10       -12.0477   -9.2451   37.2668 C.ar      1 UNK         0.0850 
     11 C11        -8.2199  -15.2629   35.2507 C.ar      1 UNK         0.1300 
     12 C12        -7.8050  -15.8317   36.4700 C.ar      1 UNK         0.1300 
     13 C13        -9.5305  -11.3462   40.2723 C.2       1 UNK        -0.1150 
     14 C14        -9.1277  -11.8578   39.0925 C.2       1 UNK        -0.0970 
     15 C15        -9.9981   -9.9511   40.4437 C.2       1 UNK         0.5850 
     16 C16       -12.3391   -5.8274   35.9243 C.3       1 UNK         0.1100 
     17 C17       -13.0109  -11.2713   36.3914 C.3       1 UNK         0.1100 
     18 N18        -8.6873  -13.1589   38.8932 N.pl3     1 UNK        -0.5717 
     19 O19        -9.8118   -9.3764   41.5148 O.2       1 UNK        -0.4700 
     20 O20       -12.4786   -7.2325   36.0674 O.3       1 UNK        -0.2850 
     21 O21       -12.8094   -9.8691   36.3001 O.3       1 UNK        -0.2850 
     22 F22        -8.0659  -15.9456   34.0917 F         1 UNK        -0.1300 
     23 F23        -7.2481  -17.0660   36.4914 F         1 UNK        -0.1300 
     24 H24        -9.9167   -7.3032   39.9043 H         1 UNK         0.1150 
     25 H25        -9.4182  -12.2881   36.3932 H         1 UNK         0.1150 
     26 H26       -10.9490   -6.0898   38.0531 H         1 UNK         0.1150 
     27 H27        -9.1196  -13.5477   34.3016 H         1 UNK         0.1150 
     28 H28       -11.5903  -10.9932   38.4716 H         1 UNK         0.1150 
     29 H29        -7.6436  -15.5711   38.5958 H         1 UNK         0.1150 
     30 H30        -9.5093  -11.9520   41.1654 H         1 UNK         0.1150 
     31 H31        -9.1129  -11.2433   38.2042 H         1 UNK         0.1150 
     32 H32       -12.8805   -5.5018   35.0362 H         1 UNK         0.0300 
     33 H33       -11.2942   -5.5418   35.7962 H         1 UNK         0.0300 
     34 H34       -12.7594   -5.2958   36.7790 H         1 UNK         0.0300 
     35 H35       -13.6261  -11.5998   35.5538 H         1 UNK         0.0300 
     36 H36       -13.5351  -11.5396   37.3096 H         1 UNK         0.0300 
     37 H37       -12.0669  -11.8155   36.3394 H         1 UNK         0.0300 
     38 H38        -8.4837  -13.7100   39.7165 H         1 UNK         0.3537 
@<TRIPOS>BOND
     1    1    3 ar   
     2    1    7 ar   
     3    1   24 1    
     4    2    4 ar   
     5    2    8 ar   
     6    2   25 1    
     7    3    9 ar   
     8    3   26 1    
     9    4   11 ar   
    10    4   27 1    
    11    5    7 ar   
    12    5   10 ar   
    13    5   28 1    
    14    6    8 ar   
    15    6   12 ar   
    16    6   29 1    
    17    7   15 1    
    18    8   18 1    
    19    9   10 ar   
    20    9   20 1    
    21   10   21 1    
    22   11   12 ar   
    23   11   22 1    
    24   12   23 1    
    25   13   14 2    
    26   13   15 1    
    27   13   30 1    
    28   14   18 1    
    29   14   31 1    
    30   15   19 2    
    31   16   20 1    
    32   16   32 1    
    33   16   33 1    
    34   16   34 1    
    35   17   21 1    
    36   17   35 1    
    37   17   36 1    
    38   17   37 1    
    39   18   38 1    
@<TRIPOS>SUBSTRUCTURE
     1 UNK         1 GROUP             0       ****    0 ROOT    
@<TRIPOS>MOLECULE
ZINC44843689_218
38   39    1
SMALL
USER_CHARGES


@<TRIPOS>ATOM
      1 C1         -9.8939   -7.0478   39.4145 C.ar      1 UNK        -0.1150 
      2 C2        -10.3603   -6.2721   38.3375 C.ar      1 UNK        -0.1150 
      3 C3         -7.0741  -14.2337   35.3010 C.ar      1 UNK        -0.1150 
      4 C4         -6.8692  -14.8951   36.5264 C.ar      1 UNK        -0.1150 
      5 C5        -10.6978   -9.0584   38.3106 C.ar      1 UNK        -0.1150 
      6 C6         -7.9159  -12.2821   36.4993 C.ar      1 UNK        -0.1150 
      7 C7        -10.0473   -8.4495   39.4085 C.ar      1 UNK        -0.1150 
      8 C8         -7.7098  -12.9372   37.7368 C.ar      1 UNK         0.2000 
      9 C9        -10.9931   -6.8850   37.2284 C.ar      1 UNK         0.0850 
     10 C10       -11.1623   -8.2885   37.2155 C.ar      1 UNK         0.0850 
     11 C11        -7.5989  -12.9288   35.2893 C.ar      1 UNK         0.2200 
     12 C12        -7.1872  -14.2524   37.7386 C.ar      1 UNK         0.1800 
     13 C13        -9.0318  -10.6216   40.3525 C.2       1 UNK        -0.1150 
     14 C14        -8.4884  -11.0523   39.1971 C.2       1 UNK        -0.0970 
     15 C15        -9.5279   -9.2420   40.5651 C.2       1 UNK         0.5850 
     16 C16       -11.3263   -4.7740   36.1244 C.3       1 UNK         0.1100 
     17 C17       -11.9293  -10.2443   36.0379 C.3       1 UNK         0.1100 
     18 N18        -8.0183  -12.3383   38.9691 N.pl3     1 UNK        -0.5717 
     19 O19        -9.4824   -8.7493   41.6911 O.2       1 UNK        -0.4700 
     20 O20       -11.4667   -6.1861   36.1371 O.3       1 UNK        -0.2850 
     21 O21       -11.7849   -8.8340   36.1113 O.3       1 UNK        -0.2850 
     22 F22        -7.8024  -12.2956   34.1112 F         1 UNK        -0.2200 
     23 Cl23       -6.9346  -15.0922   39.2285 Cl        1 UNK        -0.1800 
     24 H24        -9.4116   -6.5601   40.2509 H         1 UNK         0.1150 
     25 H25       -10.2168   -5.2040   38.3870 H         1 UNK         0.1150 
     26 H26        -6.8330  -14.7235   34.3687 H         1 UNK         0.1150 
     27 H27        -6.4691  -15.8982   36.5390 H         1 UNK         0.1150 
     28 H28       -10.8434  -10.1268   38.3263 H         1 UNK         0.1150 
     29 H29        -8.3225  -11.2850   36.4472 H         1 UNK         0.1150 
     30 H30        -9.1105  -11.2880   41.1980 H         1 UNK         0.1150 
     31 H31        -8.3741  -10.3809   38.3586 H         1 UNK         0.1150 
     32 H32       -11.7529   -4.3798   35.2021 H         1 UNK         0.0300 
     33 H33       -10.2771   -4.4771   36.1547 H         1 UNK         0.0300 
     34 H34       -11.8590   -4.3128   36.9569 H         1 UNK         0.0300 
     35 H35       -12.4101  -10.5063   35.0955 H         1 UNK         0.0300 
     36 H36       -12.5585  -10.6230   36.8445 H         1 UNK         0.0300 
     37 H37       -10.9619  -10.7477   36.0643 H         1 UNK         0.0300 
     38 H38        -7.9062  -12.9581   39.7639 H         1 UNK         0.3537 
@<TRIPOS>BOND
     1    1    2 ar   
     2    1    7 ar   
     3    1   24 1    
     4    2    9 ar   
     5    2   25 1    
     6    3    4 ar   
     7    3   11 ar   
     8    3   26 1    
     9    4   12 ar   
    10    4   27 1    
    11    5    7 ar   
    12    5   10 ar   
    13    5   28 1    
    14    6    8 ar   
    15    6   11 ar   
    16    6   29 1    
    17    7   15 1    
    18    8   12 ar   
    19    8   18 1    
    20    9   10 ar   
    21    9   20 1    
    22   10   21 1    
    23   11   22 1    
    24   12   23 1    
    25   13   14 2    
    26   13   15 1    
    27   13   30 1    
    28   14   18 1    
    29   14   31 1    
    30   15   19 2    
    31   16   20 1    
    32   16   32 1    
    33   16   33 1    
    34   16   34 1    
    35   17   21 1    
    36   17   35 1    
    37   17   36 1    
    38   17   37 1    
    39   18   38 1    
@<TRIPOS>SUBSTRUCTURE
     1 UNK         1 GROUP             0       ****    0 ROOT    
@<TRIPOS>MOLECULE
ZINC44843709_236
41   42    1
SMALL
USER_CHARGES


@<TRIPOS>ATOM
      1 C1        -10.3332   -7.8711   38.9587 C.ar      1 UNK        -0.1150 
      2 C2         -7.9565  -16.0760   36.4097 C.ar      1 UNK        -0.1150 
      3 C3         -8.3927  -15.3510   37.5352 C.ar      1 UNK        -0.1150 
      4 C4        -11.0465   -7.1792   37.9630 C.ar      1 UNK        -0.1150 
      5 C5        -11.5196   -9.9136   38.3863 C.ar      1 UNK        -0.1150 
      6 C6         -7.5712  -13.9867   35.2255 C.ar      1 UNK        -0.1150 
      7 C7        -10.5534   -9.2471   39.1739 C.ar      1 UNK        -0.1150 
      8 C8         -7.5449  -15.3950   35.2480 C.ar      1 UNK        -0.1150 
      9 C9         -8.4325  -13.9402   37.5208 C.ar      1 UNK         0.2000 
     10 C10       -12.0026   -7.8513   37.1625 C.ar      1 UNK         0.0850 
     11 C11       -12.2416   -9.2280   37.3775 C.ar      1 UNK         0.0850 
     12 C12        -8.0047  -13.2574   36.3499 C.ar      1 UNK         0.2200 
     13 C13        -9.3964  -11.3732   40.0674 C.2       1 UNK        -0.1150 
     14 C14        -9.2248  -11.9717   38.8724 C.2       1 UNK        -0.0970 
     15 C15        -9.7700   -9.9493   40.2354 C.2       1 UNK         0.5850 
     16 C16        -7.0771  -16.1664   34.0306 C.3       1 UNK        -0.0650 
     17 C17       -12.4990   -5.8600   35.9082 C.3       1 UNK         0.1100 
     18 C18       -13.4138  -11.2252   36.7221 C.3       1 UNK         0.1100 
     19 N19        -8.8820  -13.3052   38.6924 N.pl3     1 UNK        -0.5717 
     20 O20        -9.4096   -9.3467   41.2457 O.2       1 UNK        -0.4700 
     21 O21       -12.7329   -7.2356   36.1668 O.3       1 UNK        -0.2850 
     22 O22       -13.1867   -9.8320   36.5736 O.3       1 UNK        -0.2850 
     23 F23        -7.9761  -11.9052   36.2799 F         1 UNK        -0.2200 
     24 H24        -9.6068   -7.3403   39.5590 H         1 UNK         0.1150 
     25 H25        -7.9416  -17.1562   36.4442 H         1 UNK         0.1150 
     26 H26        -8.7074  -15.8944   38.4135 H         1 UNK         0.1150 
     27 H27       -10.8388   -6.1287   37.8334 H         1 UNK         0.1150 
     28 H28       -11.7036  -10.9591   38.5755 H         1 UNK         0.1150 
     29 H29        -7.2526  -13.4482   34.3452 H         1 UNK         0.1150 
     30 H30        -9.2382  -11.9288   40.9789 H         1 UNK         0.1150 
     31 H31        -9.3622  -11.4188   37.9550 H         1 UNK         0.1150 
     32 H32        -7.8808  -16.2377   33.2972 H         1 UNK         0.0600 
     33 H33        -6.2277  -15.6686   33.5613 H         1 UNK         0.0600 
     34 H34        -6.7673  -17.1772   34.2979 H         1 UNK         0.0600 
     35 H35       -13.1417   -5.5348   35.0904 H         1 UNK         0.0300 
     36 H36       -11.4663   -5.6812   35.6061 H         1 UNK         0.0300 
     37 H37       -12.7352   -5.2449   36.7774 H         1 UNK         0.0300 
     38 H38       -14.1570  -11.5470   35.9927 H         1 UNK         0.0300 
     39 H39       -13.8024  -11.4614   37.7135 H         1 UNK         0.0300 
     40 H40       -12.5045  -11.8000   36.5411 H         1 UNK         0.0300 
     41 H41        -8.9098  -13.8997   39.5074 H         1 UNK         0.3537 
@<TRIPOS>BOND
     1    1    4 ar   
     2    1    7 ar   
     3    1   24 1    
     4    2    3 ar   
     5    2    8 ar   
     6    2   25 1    
     7    3    9 ar   
     8    3   26 1    
     9    4   10 ar   
    10    4   27 1    
    11    5    7 ar   
    12    5   11 ar   
    13    5   28 1    
    14    6    8 ar   
    15    6   12 ar   
    16    6   29 1    
    17    7   15 1    
    18    8   16 1    
    19    9   12 ar   
    20    9   19 1    
    21   10   11 ar   
    22   10   21 1    
    23   11   22 1    
    24   12   23 1    
    25   13   14 2    
    26   13   15 1    
    27   13   30 1    
    28   14   19 1    
    29   14   31 1    
    30   15   20 2    
    31   16   32 1    
    32   16   33 1    
    33   16   34 1    
    34   17   21 1    
    35   17   35 1    
    36   17   36 1    
    37   17   37 1    
    38   18   22 1    
    39   18   38 1    
    40   18   39 1    
    41   18   40 1    
    42   19   41 1    
@<TRIPOS>SUBSTRUCTURE
     1 UNK         1 GROUP             0       ****    0 ROOT    
@<TRIPOS>MOLECULE
ZINC44843714_286
41   42    1
SMALL
USER_CHARGES


@<TRIPOS>ATOM
      1 C1        -10.5333   -7.9316   39.1621 C.ar      1 UNK        -0.1150 
      2 C2         -8.5538  -14.0091   35.2487 C.ar      1 UNK        -0.1150 
      3 C3         -8.7622  -13.2991   36.4474 C.ar      1 UNK        -0.1150 
      4 C4        -11.1013   -7.2422   38.0752 C.ar      1 UNK        -0.1150 
      5 C5        -11.3765  -10.0286   38.2682 C.ar      1 UNK        -0.1150 
      6 C6         -7.7844  -15.1390   37.7057 C.ar      1 UNK        -0.1150 
      7 C7        -10.6546   -9.3326   39.2647 C.ar      1 UNK        -0.1150 
      8 C8         -7.9569  -15.2859   35.2749 C.ar      1 UNK        -0.1150 
      9 C9         -8.3748  -13.8582   37.6879 C.ar      1 UNK         0.2000 
     10 C10       -11.8060   -7.9428   37.0655 C.ar      1 UNK         0.0850 
     11 C11       -11.9445   -9.3464   37.1637 C.ar      1 UNK         0.0850 
     12 C12        -7.5745  -15.8495   36.5086 C.ar      1 UNK         0.2200 
     13 C13        -9.5171  -11.4160   40.2627 C.2       1 UNK        -0.1150 
     14 C14        -9.0483  -11.9062   39.0984 C.2       1 UNK        -0.0970 
     15 C15       -10.0252  -10.0342   40.4251 C.2       1 UNK         0.5850 
     16 C16        -7.7307  -16.0546   33.9887 C.3       1 UNK        -0.0650 
     17 C17       -12.2829   -5.9194   35.8557 C.3       1 UNK         0.1100 
     18 C18       -12.7975  -11.3895   36.2164 C.3       1 UNK         0.1100 
     19 N19        -8.5691  -13.1949   38.9093 N.pl3     1 UNK        -0.5717 
     20 O20        -9.9002   -9.4657   41.5086 O.2       1 UNK        -0.4700 
     21 O21       -12.3799   -7.3308   35.9704 O.3       1 UNK        -0.2850 
     22 O22       -12.6395   -9.9801   36.1539 O.3       1 UNK        -0.2850 
     23 F23        -7.0052  -17.0776   36.5478 F         1 UNK        -0.2200 
     24 H24        -9.9962   -7.3786   39.9207 H         1 UNK         0.1150 
     25 H25        -8.8563  -13.5672   34.3105 H         1 UNK         0.1150 
     26 H26        -9.2295  -12.3281   36.3891 H         1 UNK         0.1150 
     27 H27       -10.9784   -6.1711   38.0390 H         1 UNK         0.1150 
     28 H28       -11.4932  -11.0960   38.3686 H         1 UNK         0.1150 
     29 H29        -7.4804  -15.5921   38.6367 H         1 UNK         0.1150 
     30 H30        -9.5227  -12.0304   41.1502 H         1 UNK         0.1150 
     31 H31        -9.0061  -11.2841   38.2160 H         1 UNK         0.1150 
     32 H32        -6.7262  -16.4787   33.9712 H         1 UNK         0.0600 
     33 H33        -8.4468  -16.8727   33.9097 H         1 UNK         0.0600 
     34 H34        -7.8421  -15.4132   33.1146 H         1 UNK         0.0600 
     35 H35       -12.7946   -5.5978   34.9487 H         1 UNK         0.0300 
     36 H36       -11.2440   -5.5956   35.7800 H         1 UNK         0.0300 
     37 H37       -12.7598   -5.4171   36.6984 H         1 UNK         0.0300 
     38 H38       -13.3493  -11.7271   35.3392 H         1 UNK         0.0300 
     39 H39       -13.3666  -11.6871   37.0980 H         1 UNK         0.0300 
     40 H40       -11.8343  -11.9016   36.2155 H         1 UNK         0.0300 
     41 H41        -8.3849  -13.7477   39.7359 H         1 UNK         0.3537 
@<TRIPOS>BOND
     1    1    4 ar   
     2    1    7 ar   
     3    1   24 1    
     4    2    3 ar   
     5    2    8 ar   
     6    2   25 1    
     7    3    9 ar   
     8    3   26 1    
     9    4   10 ar   
    10    4   27 1    
    11    5    7 ar   
    12    5   11 ar   
    13    5   28 1    
    14    6    9 ar   
    15    6   12 ar   
    16    6   29 1    
    17    7   15 1    
    18    8   12 ar   
    19    8   16 1    
    20    9   19 1    
    21   10   11 ar   
    22   10   21 1    
    23   11   22 1    
    24   12   23 1    
    25   13   14 2    
    26   13   15 1    
    27   13   30 1    
    28   14   19 1    
    29   14   31 1    
    30   15   20 2    
    31   16   32 1    
    32   16   33 1    
    33   16   34 1    
    34   17   21 1    
    35   17   35 1    
    36   17   36 1    
    37   17   37 1    
    38   18   22 1    
    39   18   38 1    
    40   18   39 1    
    41   18   40 1    
    42   19   41 1    
@<TRIPOS>SUBSTRUCTURE
     1 UNK         1 GROUP             0       ****    0 ROOT    
@<TRIPOS>MOLECULE
ZINC44843719_137
41   42    1
SMALL
USER_CHARGES


@<TRIPOS>ATOM
      1 C1        -10.5566   -8.1046   39.2913 C.ar      1 UNK        -0.1150 
      2 C2         -9.1096  -13.4857   36.3230 C.ar      1 UNK        -0.1150 
      3 C3        -11.0732   -7.3149   38.2480 C.ar      1 UNK        -0.1150 
      4 C4         -8.9484  -14.1555   35.0951 C.ar      1 UNK        -0.1150 
      5 C5        -11.5012  -10.0887   38.2538 C.ar      1 UNK        -0.1150 
      6 C6         -8.2383  -16.1580   36.2815 C.ar      1 UNK        -0.1150 
      7 C7        -10.7566   -9.5005   39.3024 C.ar      1 UNK        -0.1150 
      8 C8         -8.3962  -15.4939   37.5171 C.ar      1 UNK        -0.1150 
      9 C9         -8.8321  -14.1463   37.5435 C.ar      1 UNK         0.2000 
     10 C10       -11.8032   -7.9078   37.1889 C.ar      1 UNK         0.0850 
     11 C11       -12.0163   -9.3054   37.1914 C.ar      1 UNK         0.0850 
     12 C12        -8.5123  -15.4910   35.0742 C.ar      1 UNK         0.2200 
     13 C13        -9.7995  -11.7181   40.2035 C.2       1 UNK        -0.1150 
     14 C14        -9.3539  -12.1941   39.0245 C.2       1 UNK        -0.0970 
     15 C15       -10.1881  -10.3065   40.4268 C.2       1 UNK         0.5850 
     16 C16        -8.0922  -16.2422   38.8045 C.3       1 UNK        -0.0650 
     17 C17       -12.1734   -5.7838   36.1228 C.3       1 UNK         0.1100 
     18 C18       -12.9316  -11.2363   36.0803 C.3       1 UNK         0.1100 
     19 N19        -8.9904  -13.5120   38.7844 N.pl3     1 UNK        -0.5717 
     20 O20       -10.0178   -9.8019   41.5356 O.2       1 UNK        -0.4700 
     21 O21       -12.3323   -7.1941   36.1332 O.3       1 UNK        -0.2850 
     22 O22       -12.7321   -9.8319   36.1354 O.3       1 UNK        -0.2850 
     23 F23        -8.3590  -16.1354   33.8946 F         1 UNK        -0.2200 
     24 H24       -10.0011   -7.6317   40.0899 H         1 UNK         0.1150 
     25 H25        -9.4542  -12.4643   36.2994 H         1 UNK         0.1150 
     26 H26       -10.8918   -6.2521   38.2839 H         1 UNK         0.1150 
     27 H27        -9.1601  -13.6471   34.1663 H         1 UNK         0.1150 
     28 H28       -11.6812  -11.1516   38.2822 H         1 UNK         0.1150 
     29 H29        -7.9055  -17.1846   36.2467 H         1 UNK         0.1150 
     30 H30        -9.8757  -12.3706   41.0598 H         1 UNK         0.1150 
     31 H31        -9.2394  -11.5379   38.1742 H         1 UNK         0.1150 
     32 H32        -7.3141  -15.7278   39.3697 H         1 UNK         0.0600 
     33 H33        -8.9869  -16.3125   39.4240 H         1 UNK         0.0600 
     34 H34        -7.7436  -17.2559   38.6046 H         1 UNK         0.0600 
     35 H35       -12.6608   -5.3744   35.2380 H         1 UNK         0.0300 
     36 H36       -11.1209   -5.5009   36.0794 H         1 UNK         0.0300 
     37 H37       -12.6374   -5.3238   36.9962 H         1 UNK         0.0300 
     38 H38       -13.4899  -11.4836   35.1774 H         1 UNK         0.0300 
     39 H39       -13.5119  -11.5908   36.9329 H         1 UNK         0.0300 
     40 H40       -11.9830  -11.7735   36.0376 H         1 UNK         0.0300 
     41 H41        -8.8807  -14.1191   39.5843 H         1 UNK         0.3537 
@<TRIPOS>BOND
     1    1    3 ar   
     2    1    7 ar   
     3    1   24 1    
     4    2    4 ar   
     5    2    9 ar   
     6    2   25 1    
     7    3   10 ar   
     8    3   26 1    
     9    4   12 ar   
    10    4   27 1    
    11    5    7 ar   
    12    5   11 ar   
    13    5   28 1    
    14    6    8 ar   
    15    6   12 ar   
    16    6   29 1    
    17    7   15 1    
    18    8    9 ar   
    19    8   16 1    
    20    9   19 1    
    21   10   11 ar   
    22   10   21 1    
    23   11   22 1    
    24   12   23 1    
    25   13   14 2    
    26   13   15 1    
    27   13   30 1    
    28   14   19 1    
    29   14   31 1    
    30   15   20 2    
    31   16   32 1    
    32   16   33 1    
    33   16   34 1    
    34   17   21 1    
    35   17   35 1    
    36   17   36 1    
    37   17   37 1    
    38   18   22 1    
    39   18   38 1    
    40   18   39 1    
    41   18   40 1    
    42   19   41 1    
@<TRIPOS>SUBSTRUCTURE
     1 UNK         1 GROUP             0       ****    0 ROOT    
@<TRIPOS>MOLECULE
ZINC44843733_269
41   42    1
SMALL
USER_CHARGES


@<TRIPOS>ATOM
      1 C1        -10.3980   -8.0389   39.1412 C.ar      1 UNK        -0.1150 
      2 C2         -9.1616  -13.5237   36.3144 C.ar      1 UNK        -0.1150 
      3 C3        -10.9995   -7.3055   38.1023 C.ar      1 UNK        -0.1150 
      4 C4         -9.0886  -14.2533   35.1122 C.ar      1 UNK        -0.1150 
      5 C5        -11.4181  -10.0741   38.2911 C.ar      1 UNK        -0.1150 
      6 C6         -8.3041  -15.4529   37.5305 C.ar      1 UNK        -0.1150 
      7 C7        -10.5918   -9.4320   39.2421 C.ar      1 UNK        -0.1150 
      8 C8         -8.2324  -16.1863   36.3275 C.ar      1 UNK        -0.1150 
      9 C9         -8.7651  -14.1195   37.5344 C.ar      1 UNK         0.2000 
     10 C10       -11.8112   -7.9530   37.1389 C.ar      1 UNK         0.0850 
     11 C11       -12.0207   -9.3479   37.2341 C.ar      1 UNK         0.0850 
     12 C12        -8.6237  -15.5805   35.1166 C.ar      1 UNK         0.2200 
     13 C13        -9.5401  -11.5961   40.1642 C.2       1 UNK        -0.1150 
     14 C14        -9.1866  -12.1200   38.9743 C.2       1 UNK        -0.0970 
     15 C15        -9.9287  -10.1796   40.3547 C.2       1 UNK         0.5850 
     16 C16        -7.7309  -17.6171   36.3328 C.3       1 UNK        -0.0650 
     17 C17       -12.2600   -5.8907   35.9850 C.3       1 UNK         0.1100 
     18 C18       -13.0301  -11.3318   36.3152 C.3       1 UNK         0.1100 
     19 N19        -8.8245  -13.4427   38.7601 N.pl3     1 UNK        -0.5717 
     20 O20        -9.6796   -9.6224   41.4228 O.2       1 UNK        -0.4700 
     21 O21       -12.4254   -7.2963   36.0923 O.3       1 UNK        -0.2850 
     22 O22       -12.8193   -9.9287   36.2700 O.3       1 UNK        -0.2850 
     23 F23        -8.5557  -16.2723   33.9552 F         1 UNK        -0.2200 
     24 H24        -9.7806   -7.5250   39.8654 H         1 UNK         0.1150 
     25 H25        -9.5304  -12.5111   36.2735 H         1 UNK         0.1150 
     26 H26       -10.8191   -6.2426   38.0665 H         1 UNK         0.1150 
     27 H27        -9.3899  -13.7967   34.1814 H         1 UNK         0.1150 
     28 H28       -11.5907  -11.1340   38.3907 H         1 UNK         0.1150 
     29 H29        -7.9984  -15.9208   38.4545 H         1 UNK         0.1150 
     30 H30        -9.5365  -12.2096   41.0523 H         1 UNK         0.1150 
     31 H31        -9.1523  -11.5013   38.0893 H         1 UNK         0.1150 
     32 H32        -8.2955  -18.2254   35.6250 H         1 UNK         0.0600 
     33 H33        -6.6798  -17.6474   36.0451 H         1 UNK         0.0600 
     34 H34        -7.8330  -18.0696   37.3195 H         1 UNK         0.0600 
     35 H35       -12.8151   -5.5294   35.1195 H         1 UNK         0.0300 
     36 H36       -11.2128   -5.6222   35.8401 H         1 UNK         0.0300 
     37 H37       -12.6493   -5.3750   36.8638 H         1 UNK         0.0300 
     38 H38       -13.6616  -11.6261   35.4770 H         1 UNK         0.0300 
     39 H39       -13.5412  -11.6287   37.2319 H         1 UNK         0.0300 
     40 H40       -12.0913  -11.8805   36.2281 H         1 UNK         0.0300 
     41 H41        -8.6384  -14.0115   39.5748 H         1 UNK         0.3537 
@<TRIPOS>BOND
     1    1    3 ar   
     2    1    7 ar   
     3    1   24 1    
     4    2    4 ar   
     5    2    9 ar   
     6    2   25 1    
     7    3   10 ar   
     8    3   26 1    
     9    4   12 ar   
    10    4   27 1    
    11    5    7 ar   
    12    5   11 ar   
    13    5   28 1    
    14    6    8 ar   
    15    6    9 ar   
    16    6   29 1    
    17    7   15 1    
    18    8   12 ar   
    19    8   16 1    
    20    9   19 1    
    21   10   11 ar   
    22   10   21 1    
    23   11   22 1    
    24   12   23 1    
    25   13   14 2    
    26   13   15 1    
    27   13   30 1    
    28   14   19 1    
    29   14   31 1    
    30   15   20 2    
    31   16   32 1    
    32   16   33 1    
    33   16   34 1    
    34   17   21 1    
    35   17   35 1    
    36   17   36 1    
    37   17   37 1    
    38   18   22 1    
    39   18   38 1    
    40   18   39 1    
    41   18   40 1    
    42   19   41 1    
@<TRIPOS>SUBSTRUCTURE
     1 UNK         1 GROUP             0       ****    0 ROOT    
@<TRIPOS>MOLECULE
ZINC44843743_271
41   42    1
SMALL
USER_CHARGES


@<TRIPOS>ATOM
      1 C1        -10.5416   -7.9540   39.1700 C.ar      1 UNK        -0.1150 
      2 C2         -8.6128  -14.0295   35.2497 C.ar      1 UNK        -0.1150 
      3 C3         -8.8119  -13.3208   36.4501 C.ar      1 UNK        -0.1150 
      4 C4        -11.0973   -7.2581   38.0808 C.ar      1 UNK        -0.1150 
      5 C5        -11.3977  -10.0422   38.2678 C.ar      1 UNK        -0.1150 
      6 C6         -7.8477  -15.1722   37.6993 C.ar      1 UNK        -0.1150 
      7 C7        -10.6756   -9.3540   39.2698 C.ar      1 UNK        -0.1150 
      8 C8         -8.0285  -15.3125   35.2670 C.ar      1 UNK        -0.1150 
      9 C9         -8.4265  -13.8867   37.6872 C.ar      1 UNK         0.2000 
     10 C10       -11.8025   -7.9511   37.0662 C.ar      1 UNK         0.0850 
     11 C11       -11.9538   -9.3535   37.1614 C.ar      1 UNK         0.0850 
     12 C12        -7.6460  -15.8839   36.5007 C.ar      1 UNK         0.1800 
     13 C13        -9.5557  -11.4465   40.2677 C.2       1 UNK        -0.1150 
     14 C14        -9.0843  -11.9349   39.1037 C.2       1 UNK        -0.0970 
     15 C15       -10.0587  -10.0630   40.4322 C.2       1 UNK         0.5850 
     16 C16        -7.8180  -16.0658   33.9666 C.3       1 UNK        -0.0650 
     17 C17       -12.2415   -5.9239   35.8485 C.3       1 UNK         0.1100 
     18 C18       -12.8159  -11.3881   36.2040 C.3       1 UNK         0.1100 
     19 N19        -8.6114  -13.2253   38.9108 N.pl3     1 UNK        -0.5717 
     20 O20        -9.9403   -9.4996   41.5191 O.2       1 UNK        -0.4700 
     21 O21       -12.3649   -7.3327   35.9685 O.3       1 UNK        -0.2850 
     22 O22       -12.6489   -9.9794   36.1469 O.3       1 UNK        -0.2850 
     23 Cl23       -6.9290  -17.4547   36.5664 Cl        1 UNK        -0.1800 
     24 H24       -10.0045   -7.4068   39.9327 H         1 UNK         0.1150 
     25 H25        -8.9131  -13.5790   34.3148 H         1 UNK         0.1150 
     26 H26        -9.2702  -12.3453   36.3955 H         1 UNK         0.1150 
     27 H27       -10.9648   -6.1881   38.0468 H         1 UNK         0.1150 
     28 H28       -11.5240  -11.1088   38.3657 H         1 UNK         0.1150 
     29 H29        -7.5467  -15.6272   38.6308 H         1 UNK         0.1150 
     30 H30        -9.5683  -12.0638   41.1529 H         1 UNK         0.1150 
     31 H31        -9.0349  -11.3095   38.2242 H         1 UNK         0.1150 
     32 H32        -6.7599  -16.2878   33.8239 H         1 UNK         0.0600 
     33 H33        -8.3668  -17.0078   33.9810 H         1 UNK         0.0600 
     34 H34        -8.1606  -15.4884   33.1081 H         1 UNK         0.0600 
     35 H35       -12.7450   -5.5961   34.9391 H         1 UNK         0.0300 
     36 H36       -11.1965   -5.6206   35.7739 H         1 UNK         0.0300 
     37 H37       -12.7104   -5.4088   36.6881 H         1 UNK         0.0300 
     38 H38       -13.3699  -11.7191   35.3257 H         1 UNK         0.0300 
     39 H39       -13.3868  -11.6861   37.0842 H         1 UNK         0.0300 
     40 H40       -11.8559  -11.9059   36.2011 H         1 UNK         0.0300 
     41 H41        -8.4286  -13.7815   39.7352 H         1 UNK         0.3537 
@<TRIPOS>BOND
     1    1    4 ar   
     2    1    7 ar   
     3    1   24 1    
     4    2    3 ar   
     5    2    8 ar   
     6    2   25 1    
     7    3    9 ar   
     8    3   26 1    
     9    4   10 ar   
    10    4   27 1    
    11    5    7 ar   
    12    5   11 ar   
    13    5   28 1    
    14    6    9 ar   
    15    6   12 ar   
    16    6   29 1    
    17    7   15 1    
    18    8   12 ar   
    19    8   16 1    
    20    9   19 1    
    21   10   11 ar   
    22   10   21 1    
    23   11   22 1    
    24   12   23 1    
    25   13   14 2    
    26   13   15 1    
    27   13   30 1    
    28   14   19 1    
    29   14   31 1    
    30   15   20 2    
    31   16   32 1    
    32   16   33 1    
    33   16   34 1    
    34   17   21 1    
    35   17   35 1    
    36   17   36 1    
    37   17   37 1    
    38   18   22 1    
    39   18   38 1    
    40   18   39 1    
    41   18   40 1    
    42   19   41 1    
@<TRIPOS>SUBSTRUCTURE
     1 UNK         1 GROUP             0       ****    0 ROOT    
@<TRIPOS>MOLECULE
ZINC44843797_264
41   42    1
SMALL
USER_CHARGES


@<TRIPOS>ATOM
      1 C1        -10.4199   -8.0376   39.1625 C.ar      1 UNK        -0.1150 
      2 C2         -9.1445  -13.4846   36.3418 C.ar      1 UNK        -0.1150 
      3 C3        -10.9989   -7.3061   38.1094 C.ar      1 UNK        -0.1150 
      4 C4         -9.0728  -14.2053   35.1349 C.ar      1 UNK        -0.1150 
      5 C5        -11.4170  -10.0752   38.2905 C.ar      1 UNK        -0.1150 
      6 C6         -8.2980  -15.4259   37.5436 C.ar      1 UNK        -0.1150 
      7 C7        -10.6128   -9.4312   39.2590 C.ar      1 UNK        -0.1150 
      8 C8         -8.2251  -16.1527   36.3360 C.ar      1 UNK        -0.1150 
      9 C9         -8.7537  -14.0911   37.5576 C.ar      1 UNK         0.2000 
     10 C10       -11.7866   -7.9559   37.1276 C.ar      1 UNK         0.0850 
     11 C11       -11.9965   -9.3509   37.2194 C.ar      1 UNK         0.0850 
     12 C12        -8.6150  -15.5356   35.1267 C.ar      1 UNK         0.1800 
     13 C13        -9.5703  -11.5924   40.1946 C.2       1 UNK        -0.1150 
     14 C14        -9.1860  -12.1041   39.0090 C.2       1 UNK        -0.0970 
     15 C15        -9.9703  -10.1788   40.3839 C.2       1 UNK         0.5850 
     16 C16        -7.7309  -17.5879   36.3451 C.3       1 UNK        -0.0650 
     17 C17       -12.2064   -5.8967   35.9576 C.3       1 UNK         0.1100 
     18 C18       -12.9853  -11.3367   36.2817 C.3       1 UNK         0.1100 
     19 N19        -8.8157  -13.4234   38.7884 N.pl3     1 UNK        -0.5717 
     20 O20        -9.7476   -9.6245   41.4592 O.2       1 UNK        -0.4700 
     21 O21       -12.3764   -7.3016   36.0658 O.3       1 UNK        -0.2850 
     22 O22       -12.7711   -9.9341   36.2374 O.3       1 UNK        -0.2850 
     23 Cl23       -8.5426  -16.3917   33.6284 Cl        1 UNK        -0.1800 
     24 H24        -9.8195   -7.5225   39.9001 H         1 UNK         0.1150 
     25 H25        -9.5091  -12.4702   36.3077 H         1 UNK         0.1150 
     26 H26       -10.8197   -6.2429   38.0771 H         1 UNK         0.1150 
     27 H27        -9.3729  -13.7365   34.2094 H         1 UNK         0.1150 
     28 H28       -11.5892  -11.1354   38.3864 H         1 UNK         0.1150 
     29 H29        -7.9988  -15.9000   38.4666 H         1 UNK         0.1150 
     30 H30        -9.5863  -12.2126   41.0778 H         1 UNK         0.1150 
     31 H31        -9.1319  -11.4764   38.1315 H         1 UNK         0.1150 
     32 H32        -8.5051  -18.2569   35.9678 H         1 UNK         0.0600 
     33 H33        -6.8517  -17.6892   35.7080 H         1 UNK         0.0600 
     34 H34        -7.4602  -17.9153   37.3490 H         1 UNK         0.0600 
     35 H35       -12.7390   -5.5382   35.0769 H         1 UNK         0.0300 
     36 H36       -11.1556   -5.6297   35.8383 H         1 UNK         0.0300 
     37 H37       -12.6172   -5.3778   36.8245 H         1 UNK         0.0300 
     38 H38       -13.5957  -11.6326   35.4287 H         1 UNK         0.0300 
     39 H39       -13.5200  -11.6297   37.1861 H         1 UNK         0.0300 
     40 H40       -12.0459  -11.8878   36.2204 H         1 UNK         0.0300 
     41 H41        -8.6372  -13.9987   39.6002 H         1 UNK         0.3537 
@<TRIPOS>BOND
     1    1    3 ar   
     2    1    7 ar   
     3    1   24 1    
     4    2    4 ar   
     5    2    9 ar   
     6    2   25 1    
     7    3   10 ar   
     8    3   26 1    
     9    4   12 ar   
    10    4   27 1    
    11    5    7 ar   
    12    5   11 ar   
    13    5   28 1    
    14    6    8 ar   
    15    6    9 ar   
    16    6   29 1    
    17    7   15 1    
    18    8   12 ar   
    19    8   16 1    
    20    9   19 1    
    21   10   11 ar   
    22   10   21 1    
    23   11   22 1    
    24   12   23 1    
    25   13   14 2    
    26   13   15 1    
    27   13   30 1    
    28   14   19 1    
    29   14   31 1    
    30   15   20 2    
    31   16   32 1    
    32   16   33 1    
    33   16   34 1    
    34   17   21 1    
    35   17   35 1    
    36   17   36 1    
    37   17   37 1    
    38   18   22 1    
    39   18   38 1    
    40   18   39 1    
    41   18   40 1    
    42   19   41 1    
@<TRIPOS>SUBSTRUCTURE
     1 UNK         1 GROUP             0       ****    0 ROOT    
@<TRIPOS>MOLECULE
ZINC44843806_236
41   42    1
SMALL
USER_CHARGES


@<TRIPOS>ATOM
      1 C1         -7.7653  -12.9735   35.2062 C.ar      1 UNK        -0.1150 
      2 C2         -9.8921   -7.2385   39.4819 C.ar      1 UNK        -0.1150 
      3 C3         -8.0807  -12.3952   36.4499 C.ar      1 UNK        -0.1150 
      4 C4        -10.2638   -6.4047   38.4114 C.ar      1 UNK        -0.1150 
      5 C5         -7.2435  -14.2779   35.1497 C.ar      1 UNK        -0.1150 
      6 C6        -10.7097   -9.1712   38.2560 C.ar      1 UNK        -0.1150 
      7 C7        -10.0995   -8.6313   39.4115 C.ar      1 UNK        -0.1150 
      8 C8         -7.3530  -14.4305   37.5886 C.ar      1 UNK        -0.1150 
      9 C9         -7.8749  -13.1143   37.6516 C.ar      1 UNK         0.2000 
     10 C10       -10.8556   -6.9491   37.2452 C.ar      1 UNK         0.0850 
     11 C11       -11.0814   -8.3425   37.1683 C.ar      1 UNK         0.0850 
     12 C12        -7.0390  -15.0050   36.3356 C.ar      1 UNK         0.2200 
     13 C13        -9.2255  -10.8785   40.3140 C.2       1 UNK        -0.1150 
     14 C14        -8.6206  -11.2729   39.1765 C.2       1 UNK        -0.0970 
     15 C15        -9.6771   -9.4896   40.5607 C.2       1 UNK         0.5850 
     16 C16        -7.1219  -15.2317   38.8607 C.3       1 UNK        -0.0650 
     17 C17       -11.0345   -4.7871   36.2059 C.3       1 UNK         0.1100 
     18 C18       -11.9054  -10.2146   35.8972 C.3       1 UNK         0.1100 
     19 N19        -8.1903  -12.5642   38.9050 N.pl3     1 UNK        -0.5717 
     20 O20        -9.6757   -9.0459   41.7078 O.2       1 UNK        -0.4700 
     21 O21       -11.2363   -6.1912   36.1570 O.3       1 UNK        -0.2850 
     22 O22       -11.6622   -8.8206   36.0116 O.3       1 UNK        -0.2850 
     23 F23        -6.5390  -16.2617   36.2619 F         1 UNK        -0.2200 
     24 H24        -7.9251  -12.4155   34.2951 H         1 UNK         0.1150 
     25 H25        -9.4398   -6.8036   40.3628 H         1 UNK         0.1150 
     26 H26        -8.4886  -11.3964   36.4544 H         1 UNK         0.1150 
     27 H27       -10.0809   -5.3463   38.5109 H         1 UNK         0.1150 
     28 H28        -6.9995  -14.7270   34.1981 H         1 UNK         0.1150 
     29 H29       -10.8948  -10.2330   38.2206 H         1 UNK         0.1150 
     30 H30        -9.3926  -11.5818   41.1156 H         1 UNK         0.1150 
     31 H31        -8.4172  -10.5632   38.3877 H         1 UNK         0.1150 
     32 H32        -8.0657  -15.4028   39.3781 H         1 UNK         0.0600 
     33 H33        -6.6766  -16.2047   38.6534 H         1 UNK         0.0600 
     34 H34        -6.4470  -14.6962   39.5286 H         1 UNK         0.0600 
     35 H35       -11.3907   -4.3418   35.2772 H         1 UNK         0.0300 
     36 H36        -9.9768   -4.5392   36.3052 H         1 UNK         0.0300 
     37 H37       -11.5933   -4.3320   37.0249 H         1 UNK         0.0300 
     38 H38       -12.3590  -10.4211   34.9279 H         1 UNK         0.0300 
     39 H39       -12.5978  -10.5625   36.6649 H         1 UNK         0.0300 
     40 H40       -10.9796  -10.7884   35.9560 H         1 UNK         0.0300 
     41 H41        -8.1476  -13.2148   39.6770 H         1 UNK         0.3537 
@<TRIPOS>BOND
     1    1    3 ar   
     2    1    5 ar   
     3    1   24 1    
     4    2    4 ar   
     5    2    7 ar   
     6    2   25 1    
     7    3    9 ar   
     8    3   26 1    
     9    4   10 ar   
    10    4   27 1    
    11    5   12 ar   
    12    5   28 1    
    13    6    7 ar   
    14    6   11 ar   
    15    6   29 1    
    16    7   15 1    
    17    8    9 ar   
    18    8   12 ar   
    19    8   16 1    
    20    9   19 1    
    21   10   11 ar   
    22   10   21 1    
    23   11   22 1    
    24   12   23 1    
    25   13   14 2    
    26   13   15 1    
    27   13   30 1    
    28   14   19 1    
    29   14   31 1    
    30   15   20 2    
    31   16   32 1    
    32   16   33 1    
    33   16   34 1    
    34   17   21 1    
    35   17   35 1    
    36   17   36 1    
    37   17   37 1    
    38   18   22 1    
    39   18   38 1    
    40   18   39 1    
    41   18   40 1    
    42   19   41 1    
@<TRIPOS>SUBSTRUCTURE
     1 UNK         1 GROUP             0       ****    0 ROOT    
@<TRIPOS>MOLECULE
ZINC44893650_137
44   46    1
SMALL
USER_CHARGES


@<TRIPOS>ATOM
      1 C1        -14.7903  -24.8260   37.8444 C.ar      1 UNK        -0.1150 
      2 C2        -14.7123  -26.2234   37.9941 C.ar      1 UNK        -0.1150 
      3 C3        -16.0204  -24.1651   38.0297 C.ar      1 UNK        -0.1150 
      4 C4        -21.8268  -18.7523   37.8754 C.ar      1 UNK        -0.1150 
      5 C5        -22.6497  -17.6156   37.8088 C.ar      1 UNK        -0.1150 
      6 C6        -15.8649  -26.9615   38.3257 C.ar      1 UNK        -0.1150 
      7 C7        -20.0138  -17.3583   38.6884 C.ar      1 UNK        -0.1150 
      8 C8        -17.1820  -24.9053   38.3658 C.ar      1 UNK         0.0631 
      9 C9        -20.4865  -18.6293   38.2957 C.ar      1 UNK        -0.1150 
     10 C10       -22.1784  -16.3386   38.1711 C.ar      1 UNK         0.0850 
     11 C11       -20.8331  -16.1998   38.6305 C.ar      1 UNK         0.0850 
     12 C12       -17.1026  -26.3143   38.5132 C.ar      1 UNK         0.2200 
     13 C13       -19.5531  -24.6637   39.4144 C.ar      1 UNK        -0.2947 
     14 C14       -20.6852  -23.9328   39.5313 C.ar      1 UNK        -0.1717 
     15 C15       -18.4601  -24.1703   38.5848 C.ar      1 UNK         0.3933 
     16 C16       -20.8483  -22.6520   38.8521 C.ar      1 UNK         0.5567 
     17 C17       -19.5689  -19.8009   38.4045 C.2       1 UNK         0.5850 
     18 C18       -22.8192  -14.0013   38.4136 C.3       1 UNK         0.1100 
     19 C19       -19.0469  -14.8457   39.5412 C.3       1 UNK         0.1100 
     20 C20       -19.7492  -20.9814   37.4305 C.3       1 UNK         0.0800 
     21 N21       -18.5988  -23.0256   37.9901 N.2       1 UNK        -0.2833 
     22 N22       -19.7543  -22.2706   38.1358 N.pl3     1 UNK        -0.1934 
     23 O23       -21.8706  -21.9736   38.9064 O.2       1 UNK        -0.5000 
     24 O24       -18.6139  -19.8176   39.1839 O.2       1 UNK        -0.4700 
     25 O25       -23.1207  -15.3355   38.0391 O.3       1 UNK        -0.2850 
     26 O26       -20.3565  -14.9578   39.0018 O.3       1 UNK        -0.2850 
     27 F27       -18.1851  -27.0783   38.7937 F         1 UNK        -0.2200 
     28 H28       -13.9052  -24.2591   37.5913 H         1 UNK         0.1150 
     29 H29       -13.7685  -26.7309   37.8524 H         1 UNK         0.1150 
     30 H30       -16.0546  -23.0897   37.9245 H         1 UNK         0.1150 
     31 H31       -22.2565  -19.7102   37.6218 H         1 UNK         0.1150 
     32 H32       -23.6741  -17.7231   37.4834 H         1 UNK         0.1150 
     33 H33       -15.8061  -28.0349   38.4320 H         1 UNK         0.1150 
     34 H34       -18.9926  -17.2966   39.0320 H         1 UNK         0.1150 
     35 H35       -19.4628  -25.5924   39.9549 H         1 UNK         0.1150 
     36 H36       -21.4925  -24.2912   40.1517 H         1 UNK         0.1150 
     37 H37       -22.5591  -13.9298   39.4704 H         1 UNK         0.0300 
     38 H38       -23.7013  -13.3813   38.2556 H         1 UNK         0.0300 
     39 H39       -22.0182  -13.5844   37.8026 H         1 UNK         0.0300 
     40 H40       -18.8638  -13.8087   39.8223 H         1 UNK         0.0300 
     41 H41       -18.2879  -15.1254   38.8096 H         1 UNK         0.0300 
     42 H42       -18.9303  -15.4534   40.4396 H         1 UNK         0.0300 
     43 H43       -20.6449  -20.8867   36.8195 H         1 UNK         0.0600 
     44 H44       -18.9194  -20.9433   36.7243 H         1 UNK         0.0600 
@<TRIPOS>BOND
     1    1    2 ar   
     2    1    3 ar   
     3    1   28 1    
     4    2    6 ar   
     5    2   29 1    
     6    3    8 ar   
     7    3   30 1    
     8    4    5 ar   
     9    4    9 ar   
    10    4   31 1    
    11    5   10 ar   
    12    5   32 1    
    13    6   12 ar   
    14    6   33 1    
    15    7    9 ar   
    16    7   11 ar   
    17    7   34 1    
    18    8   12 ar   
    19    8   15 1    
    20    9   17 1    
    21   10   11 ar   
    22   10   25 1    
    23   11   26 1    
    24   12   27 1    
    25   13   14 ar   
    26   13   15 ar   
    27   13   35 1    
    28   14   16 ar   
    29   14   36 1    
    30   15   21 ar   
    31   16   22 ar   
    32   16   23 2    
    33   17   20 1    
    34   17   24 2    
    35   18   25 1    
    36   18   37 1    
    37   18   38 1    
    38   18   39 1    
    39   19   26 1    
    40   19   40 1    
    41   19   41 1    
    42   19   42 1    
    43   20   22 1    
    44   20   43 1    
    45   20   44 1    
    46   21   22 ar   
@<TRIPOS>SUBSTRUCTURE
     1 UNK         1 GROUP             0       ****    0 ROOT    
@<TRIPOS>MOLECULE
ZINC44901858_212
48   50    1
SMALL
USER_CHARGES


@<TRIPOS>ATOM
      1 C1        -22.2921  -34.1012   35.5342 C.ar      1 UNK        -0.1150 
      2 C2        -22.5448  -32.9304   36.2732 C.ar      1 UNK        -0.1150 
      3 C3        -24.6311  -25.6059   38.6527 C.ar      1 UNK        -0.1150 
      4 C4        -21.6534  -35.1999   36.1407 C.ar      1 UNK        -0.1150 
      5 C5        -25.0813  -24.2867   38.8266 C.ar      1 UNK        -0.1150 
      6 C6        -21.5141  -33.9673   38.2381 C.ar      1 UNK        -0.1150 
      7 C7        -26.7340  -26.1532   37.5712 C.ar      1 UNK        -0.1150 
      8 C8        -22.1535  -32.8614   37.6318 C.ar      1 UNK         0.0631 
      9 C9        -25.4475  -26.5496   37.9961 C.ar      1 UNK        -0.1150 
     10 C10       -21.2579  -35.1403   37.5005 C.ar      1 UNK         0.0850 
     11 C11       -26.3477  -23.8720   38.3705 C.ar      1 UNK         0.0850 
     12 C12       -27.2061  -24.8249   37.7423 C.ar      1 UNK         0.0850 
     13 C13       -22.2648  -31.5527   39.8718 C.ar      1 UNK        -0.2947 
     14 C14       -22.5002  -30.3819   40.5069 C.ar      1 UNK        -0.1717 
     15 C15       -22.4266  -31.6289   38.4236 C.ar      1 UNK         0.3933 
     16 C16       -22.9184  -29.1846   39.7860 C.ar      1 UNK         0.5567 
     17 C17       -25.0297  -27.9676   37.7958 C.2       1 UNK         0.5850 
     18 C18       -20.3515  -37.3635   37.4574 C.3       1 UNK         0.1100 
     19 C19       -27.7771  -21.9281   38.0580 C.3       1 UNK         0.1100 
     20 C20       -29.3478  -25.4233   36.7902 C.3       1 UNK         0.1100 
     21 C21       -23.5340  -28.2774   37.5899 C.3       1 UNK         0.0800 
     22 N22       -22.8147  -30.5701   37.7835 N.2       1 UNK        -0.2833 
     23 N23       -23.0805  -29.3810   38.4479 N.pl3     1 UNK        -0.1934 
     24 O24       -23.0990  -28.0937   40.3204 O.2       1 UNK        -0.5000 
     25 O25       -25.8456  -28.8861   37.6952 O.2       1 UNK        -0.4700 
     26 O26       -20.6264  -36.1656   38.1693 O.3       1 UNK        -0.2850 
     27 O27       -26.6244  -22.5398   38.6139 O.3       1 UNK        -0.2850 
     28 O28       -28.4667  -24.4452   37.3249 O.3       1 UNK        -0.2850 
     29 H29       -22.5914  -34.1573   34.4974 H         1 UNK         0.1150 
     30 H30       -23.0429  -32.1033   35.7867 H         1 UNK         0.1150 
     31 H31       -23.6645  -25.8736   39.0533 H         1 UNK         0.1150 
     32 H32       -21.4779  -36.0790   35.5393 H         1 UNK         0.1150 
     33 H33       -24.4447  -23.5722   39.3279 H         1 UNK         0.1150 
     34 H34       -21.1930  -33.9446   39.2670 H         1 UNK         0.1150 
     35 H35       -27.3518  -26.9039   37.1024 H         1 UNK         0.1150 
     36 H36       -21.9772  -32.4148   40.4503 H         1 UNK         0.1150 
     37 H37       -22.3892  -30.3211   41.5790 H         1 UNK         0.1150 
     38 H38       -19.6861  -37.1818   36.6124 H         1 UNK         0.0300 
     39 H39       -21.2682  -37.8356   37.1014 H         1 UNK         0.0300 
     40 H40       -19.8539  -38.0704   38.1214 H         1 UNK         0.0300 
     41 H41       -27.7391  -20.8569   38.2543 H         1 UNK         0.0300 
     42 H42       -28.6906  -22.3073   38.5173 H         1 UNK         0.0300 
     43 H43       -27.8215  -22.0581   36.9760 H         1 UNK         0.0300 
     44 H44       -28.9600  -25.8470   35.8627 H         1 UNK         0.0300 
     45 H45       -29.5394  -26.2239   37.5064 H         1 UNK         0.0300 
     46 H46       -30.3044  -24.9544   36.5602 H         1 UNK         0.0300 
     47 H47       -23.4046  -28.5403   36.5397 H         1 UNK         0.0600 
     48 H48       -22.9019  -27.4048   37.7436 H         1 UNK         0.0600 
@<TRIPOS>BOND
     1    1    2 ar   
     2    1    4 ar   
     3    1   29 1    
     4    2    8 ar   
     5    2   30 1    
     6    3    5 ar   
     7    3    9 ar   
     8    3   31 1    
     9    4   10 ar   
    10    4   32 1    
    11    5   11 ar   
    12    5   33 1    
    13    6    8 ar   
    14    6   10 ar   
    15    6   34 1    
    16    7    9 ar   
    17    7   12 ar   
    18    7   35 1    
    19    8   15 1    
    20    9   17 1    
    21   10   26 1    
    22   11   12 ar   
    23   11   27 1    
    24   12   28 1    
    25   13   14 ar   
    26   13   15 ar   
    27   13   36 1    
    28   14   16 ar   
    29   14   37 1    
    30   15   22 ar   
    31   16   23 ar   
    32   16   24 2    
    33   17   21 1    
    34   17   25 2    
    35   18   26 1    
    36   18   38 1    
    37   18   39 1    
    38   18   40 1    
    39   19   27 1    
    40   19   41 1    
    41   19   42 1    
    42   19   43 1    
    43   20   28 1    
    44   20   44 1    
    45   20   45 1    
    46   20   46 1    
    47   21   23 1    
    48   21   47 1    
    49   21   48 1    
    50   22   23 ar   
@<TRIPOS>SUBSTRUCTURE
     1 UNK         1 GROUP             0       ****    0 ROOT    
@<TRIPOS>MOLECULE
ZINC44917317_245
48   50    1
SMALL
USER_CHARGES


@<TRIPOS>ATOM
      1 C1        -16.7143  -25.2305   37.2944 C.ar      1 UNK        -0.1150 
      2 C2        -20.8359  -19.0989   36.8117 C.ar      1 UNK        -0.1150 
      3 C3        -15.6738  -25.9895   36.7243 C.ar      1 UNK        -0.1150 
      4 C4        -21.2130  -17.8180   36.3743 C.ar      1 UNK        -0.1150 
      5 C5        -19.7544  -18.0928   38.7398 C.ar      1 UNK        -0.1150 
      6 C6        -16.5479  -27.9885   37.8005 C.ar      1 UNK        -0.1150 
      7 C7        -17.6796  -25.8515   38.1243 C.ar      1 UNK         0.0631 
      8 C8        -20.1079  -19.2503   38.0114 C.ar      1 UNK        -0.1150 
      9 C9        -15.5814  -27.3802   36.9750 C.ar      1 UNK         0.0850 
     10 C10       -20.8843  -16.6619   37.1079 C.ar      1 UNK         0.0850 
     11 C11       -20.1262  -16.7917   38.3096 C.ar      1 UNK         0.0850 
     12 C12       -17.5950  -27.2435   38.3772 C.ar      1 UNK         0.2200 
     13 C13       -19.4617  -25.3569   39.9582 C.ar      1 UNK        -0.2947 
     14 C14       -20.4374  -24.5401   40.4171 C.ar      1 UNK        -0.1717 
     15 C15       -18.7490  -25.0102   38.7341 C.ar      1 UNK         0.3933 
     16 C16       -20.8011  -23.3092   39.7238 C.ar      1 UNK         0.5567 
     17 C17       -19.6711  -20.5861   38.5174 C.2       1 UNK         0.5850 
     18 C18       -13.6121  -27.6151   35.6197 C.3       1 UNK         0.1100 
     19 C19       -21.4209  -14.3070   37.3337 C.3       1 UNK         0.1100 
     20 C20       -19.0038  -15.7965   40.2062 C.3       1 UNK         0.1100 
     21 C21       -20.2640  -21.8368   37.8369 C.3       1 UNK         0.0800 
     22 N22       -19.0594  -23.9078   38.1239 N.2       1 UNK        -0.2833 
     23 N23       -20.0452  -23.0640   38.6165 N.pl3     1 UNK        -0.1934 
     24 O24       -21.7074  -22.5620   40.0846 O.2       1 UNK        -0.5000 
     25 O25       -18.8459  -20.7085   39.4263 O.2       1 UNK        -0.4700 
     26 O26       -14.5992  -28.1967   36.4593 O.3       1 UNK        -0.2850 
     27 O27       -21.3370  -15.4840   36.5455 O.3       1 UNK        -0.2850 
     28 O28       -19.7569  -15.6597   39.0094 O.3       1 UNK        -0.2850 
     29 F29       -18.5091  -27.9026   39.1289 F         1 UNK        -0.2200 
     30 H30       -16.7500  -24.1687   37.0961 H         1 UNK         0.1150 
     31 H31       -21.1155  -19.9465   36.2042 H         1 UNK         0.1150 
     32 H32       -14.9561  -25.4781   36.1007 H         1 UNK         0.1150 
     33 H33       -21.7747  -17.7130   35.4576 H         1 UNK         0.1150 
     34 H34       -19.1836  -18.2318   39.6455 H         1 UNK         0.1150 
     35 H35       -16.4907  -29.0500   37.9912 H         1 UNK         0.1150 
     36 H36       -19.2061  -26.2428   40.5171 H         1 UNK         0.1150 
     37 H37       -20.9601  -24.7883   41.3286 H         1 UNK         0.1150 
     38 H38       -14.0570  -27.1755   34.7259 H         1 UNK         0.0300 
     39 H39       -12.9162  -28.3884   35.2942 H         1 UNK         0.0300 
     40 H40       -13.0358  -26.8547   36.1486 H         1 UNK         0.0300 
     41 H41       -21.8944  -14.4957   38.2982 H         1 UNK         0.0300 
     42 H42       -22.0322  -13.5721   36.8103 H         1 UNK         0.0300 
     43 H43       -20.4383  -13.8594   37.4851 H         1 UNK         0.0300 
     44 H44       -18.8142  -14.8079   40.6242 H         1 UNK         0.0300 
     45 H45       -18.0359  -16.2635   40.0184 H         1 UNK         0.0300 
     46 H46       -19.5467  -16.3714   40.9576 H         1 UNK         0.0300 
     47 H47       -21.3352  -21.6946   37.6863 H         1 UNK         0.0600 
     48 H48       -19.8204  -21.9320   36.8456 H         1 UNK         0.0600 
@<TRIPOS>BOND
     1    1    3 ar   
     2    1    7 ar   
     3    1   30 1    
     4    2    4 ar   
     5    2    8 ar   
     6    2   31 1    
     7    3    9 ar   
     8    3   32 1    
     9    4   10 ar   
    10    4   33 1    
    11    5    8 ar   
    12    5   11 ar   
    13    5   34 1    
    14    6    9 ar   
    15    6   12 ar   
    16    6   35 1    
    17    7   12 ar   
    18    7   15 1    
    19    8   17 1    
    20    9   26 1    
    21   10   11 ar   
    22   10   27 1    
    23   11   28 1    
    24   12   29 1    
    25   13   14 ar   
    26   13   15 ar   
    27   13   36 1    
    28   14   16 ar   
    29   14   37 1    
    30   15   22 ar   
    31   16   23 ar   
    32   16   24 2    
    33   17   21 1    
    34   17   25 2    
    35   18   26 1    
    36   18   38 1    
    37   18   39 1    
    38   18   40 1    
    39   19   27 1    
    40   19   41 1    
    41   19   42 1    
    42   19   43 1    
    43   20   28 1    
    44   20   44 1    
    45   20   45 1    
    46   20   46 1    
    47   21   23 1    
    48   21   47 1    
    49   21   48 1    
    50   22   23 ar   
@<TRIPOS>SUBSTRUCTURE
     1 UNK         1 GROUP             0       ****    0 ROOT    
@<TRIPOS>MOLECULE
ZINC44920290_239
41   43    1
SMALL
USER_CHARGES


@<TRIPOS>ATOM
      1 C1        -15.2207  -24.8503   37.8109 C.2       1 UNK        -0.0738 
      2 C2        -22.0842  -18.3846   38.0731 C.ar      1 UNK        -0.1150 
      3 C3        -22.9319  -17.2695   37.9652 C.ar      1 UNK        -0.1150 
      4 C4        -16.3386  -23.9632   37.8619 C.2       1 UNK        -0.0738 
      5 C5        -20.2876  -16.9161   38.7857 C.ar      1 UNK        -0.1150 
      6 C6        -15.4090  -25.9955   38.5451 C.2       1 UNK        -0.3255 
      7 C7        -20.7402  -18.2135   38.4626 C.ar      1 UNK        -0.1150 
      8 C8        -22.4797  -15.9664   38.2508 C.ar      1 UNK         0.0850 
      9 C9        -21.1313  -15.7783   38.6830 C.ar      1 UNK         0.0850 
     10 C10       -17.3569  -24.4629   38.6395 C.2       1 UNK        -0.0637 
     11 C11       -19.6558  -24.2274   39.6877 C.ar      1 UNK        -0.2947 
     12 C12       -20.7927  -23.5080   39.8279 C.ar      1 UNK        -0.1717 
     13 C13       -18.5935  -23.7212   38.8337 C.ar      1 UNK         0.4564 
     14 C14       -20.9847  -22.2317   39.1452 C.ar      1 UNK         0.5567 
     15 C15       -19.7997  -19.3614   38.6129 C.2       1 UNK         0.5850 
     16 C16       -23.1232  -13.6178   38.2476 C.3       1 UNK         0.1100 
     17 C17       -19.3528  -14.3429   39.4770 C.3       1 UNK         0.1100 
     18 C18       -19.9496  -20.5684   37.6662 C.3       1 UNK         0.0800 
     19 N19       -18.7529  -22.5868   38.2263 N.2       1 UNK        -0.2833 
     20 N20       -19.9147  -21.8444   38.3947 N.pl3     1 UNK        -0.1934 
     21 O21       -22.0141  -21.5663   39.2190 O.2       1 UNK        -0.5000 
     22 O22       -18.8511  -19.3366   39.3995 O.2       1 UNK        -0.4700 
     23 O23       -23.4435  -14.9895   38.0825 O.3       1 UNK        -0.2850 
     24 O24       -20.6781  -14.5111   38.9936 O.3       1 UNK        -0.2850 
     25 S25       -16.9702  -26.0180   39.3269 S.3       1 UNK         0.0328 
     26 H26       -14.3289  -24.6184   37.2455 H         1 UNK         0.1211 
     27 H27       -22.4961  -19.3634   37.8752 H         1 UNK         0.1150 
     28 H28       -23.9591  -17.4132   37.6635 H         1 UNK         0.1150 
     29 H29       -16.3446  -23.0171   37.3389 H         1 UNK         0.1211 
     30 H30       -19.2633  -16.8188   39.1121 H         1 UNK         0.1150 
     31 H31       -14.7288  -26.8255   38.6781 H         1 UNK         0.2618 
     32 H32       -19.5364  -25.1669   40.2046 H         1 UNK         0.1150 
     33 H33       -21.5859  -23.8758   40.4608 H         1 UNK         0.1150 
     34 H34       -23.9997  -13.0179   38.0038 H         1 UNK         0.0300 
     35 H35       -22.3220  -13.3078   37.5758 H         1 UNK         0.0300 
     36 H36       -22.8542  -13.3910   39.2798 H         1 UNK         0.0300 
     37 H37       -19.1822  -13.2885   39.6935 H         1 UNK         0.0300 
     38 H38       -18.6146  -14.6480   38.7341 H         1 UNK         0.0300 
     39 H39       -19.1906  -14.8976   40.4022 H         1 UNK         0.0300 
     40 H40       -20.8528  -20.5119   37.0612 H         1 UNK         0.0600 
     41 H41       -19.1258  -20.5198   36.9537 H         1 UNK         0.0600 
@<TRIPOS>BOND
     1    1    4 1    
     2    1    6 2    
     3    1   26 1    
     4    2    3 ar   
     5    2    7 ar   
     6    2   27 1    
     7    3    8 ar   
     8    3   28 1    
     9    4   10 2    
    10    4   29 1    
    11    5    7 ar   
    12    5    9 ar   
    13    5   30 1    
    14    6   25 1    
    15    6   31 1    
    16    7   15 1    
    17    8    9 ar   
    18    8   23 1    
    19    9   24 1    
    20   10   13 1    
    21   10   25 1    
    22   11   12 ar   
    23   11   13 ar   
    24   11   32 1    
    25   12   14 ar   
    26   12   33 1    
    27   13   19 ar   
    28   14   20 ar   
    29   14   21 2    
    30   15   18 1    
    31   15   22 2    
    32   16   23 1    
    33   16   34 1    
    34   16   35 1    
    35   16   36 1    
    36   17   24 1    
    37   17   37 1    
    38   17   38 1    
    39   17   39 1    
    40   18   20 1    
    41   18   40 1    
    42   18   41 1    
    43   19   20 ar   
@<TRIPOS>SUBSTRUCTURE
     1 UNK         1 GROUP             0       ****    0 ROOT    
@<TRIPOS>MOLECULE
ZINC44920939_230
44   46    1
SMALL
USER_CHARGES


@<TRIPOS>ATOM
      1 C1        -14.9656  -24.9850   38.2207 C.ar      1 UNK        -0.1150 
      2 C2        -14.9146  -26.3788   38.0335 C.ar      1 UNK        -0.1150 
      3 C3        -16.2088  -24.3412   38.3705 C.ar      1 UNK        -0.1150 
      4 C4        -21.9862  -18.8960   37.9610 C.ar      1 UNK        -0.1150 
      5 C5        -22.7948  -17.7482   37.9108 C.ar      1 UNK        -0.1150 
      6 C6        -16.1063  -27.1282   37.9880 C.ar      1 UNK        -0.1150 
      7 C7        -20.1473  -17.5332   38.7701 C.ar      1 UNK        -0.1150 
      8 C8        -17.4074  -25.0943   38.3359 C.ar      1 UNK         0.0631 
      9 C9        -20.6399  -18.7937   38.3679 C.ar      1 UNK        -0.1150 
     10 C10       -22.2989  -16.4795   38.2688 C.ar      1 UNK         0.0850 
     11 C11       -20.9521  -16.3640   38.7282 C.ar      1 UNK         0.0850 
     12 C12       -17.3614  -26.5017   38.1343 C.ar      1 UNK         0.1800 
     13 C13       -19.7810  -24.8673   39.3563 C.ar      1 UNK        -0.2947 
     14 C14       -20.9071  -24.1294   39.4852 C.ar      1 UNK        -0.1717 
     15 C15       -18.6812  -24.3597   38.5485 C.ar      1 UNK         0.3933 
     16 C16       -21.0529  -22.8289   38.8390 C.ar      1 UNK         0.5567 
     17 C17       -19.7389  -19.9793   38.4578 C.2       1 UNK         0.5850 
     18 C18       -22.8018  -14.1031   38.2046 C.3       1 UNK         0.1100 
     19 C19       -19.1530  -15.0430   39.6597 C.3       1 UNK         0.1100 
     20 C20       -19.9335  -21.1366   37.4591 C.3       1 UNK         0.0800 
     21 N21       -18.7996  -23.2003   37.9809 N.2       1 UNK        -0.2833 
     22 N22       -19.9518  -22.4409   38.1357 N.pl3     1 UNK        -0.1934 
     23 O23       -22.0673  -22.1403   38.9089 O.2       1 UNK        -0.5000 
     24 O24       -18.7862  -20.0241   39.2391 O.2       1 UNK        -0.4700 
     25 O25       -23.2208  -15.4571   38.1478 O.3       1 UNK        -0.2850 
     26 O26       -20.4683  -15.1347   39.1312 O.3       1 UNK        -0.2850 
     27 Cl27      -18.7669  -27.5016   37.9808 Cl        1 UNK        -0.1800 
     28 H28       -14.0510  -24.4095   38.2554 H         1 UNK         0.1150 
     29 H29       -13.9609  -26.8744   37.9184 H         1 UNK         0.1150 
     30 H30       -16.2325  -23.2717   38.5302 H         1 UNK         0.1150 
     31 H31       -22.4302  -19.8466   37.7044 H         1 UNK         0.1150 
     32 H32       -23.8234  -17.8390   37.5938 H         1 UNK         0.1150 
     33 H33       -16.0600  -28.1957   37.8279 H         1 UNK         0.1150 
     34 H34       -19.1245  -17.4886   39.1122 H         1 UNK         0.1150 
     35 H35       -19.6917  -25.8148   39.8645 H         1 UNK         0.1150 
     36 H36       -21.7229  -24.4970   40.0890 H         1 UNK         0.1150 
     37 H37       -22.5350  -13.8119   39.2210 H         1 UNK         0.0300 
     38 H38       -23.6269  -13.4635   37.8923 H         1 UNK         0.0300 
     39 H39       -21.9670  -13.9084   37.5299 H         1 UNK         0.0300 
     40 H40       -18.9549  -14.0110   39.9488 H         1 UNK         0.0300 
     41 H41       -19.0361  -15.6609   40.5509 H         1 UNK         0.0300 
     42 H42       -18.4035  -15.3250   38.9193 H         1 UNK         0.0300 
     43 H43       -20.8298  -21.0181   36.8529 H         1 UNK         0.0600 
     44 H44       -19.1048  -21.0929   36.7520 H         1 UNK         0.0600 
@<TRIPOS>BOND
     1    1    2 ar   
     2    1    3 ar   
     3    1   28 1    
     4    2    6 ar   
     5    2   29 1    
     6    3    8 ar   
     7    3   30 1    
     8    4    5 ar   
     9    4    9 ar   
    10    4   31 1    
    11    5   10 ar   
    12    5   32 1    
    13    6   12 ar   
    14    6   33 1    
    15    7    9 ar   
    16    7   11 ar   
    17    7   34 1    
    18    8   12 ar   
    19    8   15 1    
    20    9   17 1    
    21   10   11 ar   
    22   10   25 1    
    23   11   26 1    
    24   12   27 1    
    25   13   14 ar   
    26   13   15 ar   
    27   13   35 1    
    28   14   16 ar   
    29   14   36 1    
    30   15   21 ar   
    31   16   22 ar   
    32   16   23 2    
    33   17   20 1    
    34   17   24 2    
    35   18   25 1    
    36   18   37 1    
    37   18   38 1    
    38   18   39 1    
    39   19   26 1    
    40   19   40 1    
    41   19   41 1    
    42   19   42 1    
    43   20   22 1    
    44   20   43 1    
    45   20   44 1    
    46   21   22 ar   
@<TRIPOS>SUBSTRUCTURE
     1 UNK         1 GROUP             0       ****    0 ROOT    
@<TRIPOS>MOLECULE
ZINC44974957_235
38   39    1
SMALL
USER_CHARGES


@<TRIPOS>ATOM
      1 C1        -10.8947   -7.8759   37.3073 C.ar      1 UNK        -0.1150 
      2 C2        -11.8994   -6.9039   37.1660 C.ar      1 UNK        -0.1150 
      3 C3         -9.5210   -6.2477   38.4703 C.ar      1 UNK        -0.1150 
      4 C4         -7.6687  -14.6458   37.6008 C.ar      1 UNK        -0.1150 
      5 C5         -5.8745  -13.0277   37.3042 C.ar      1 UNK        -0.1150 
      6 C6         -5.4119  -15.4137   37.0873 C.ar      1 UNK        -0.1150 
      7 C7         -9.6878   -7.5568   37.9660 C.ar      1 UNK        -0.1150 
      8 C8         -7.2354  -13.3028   37.5807 C.ar      1 UNK         0.2000 
      9 C9        -11.7388   -5.5969   37.6650 C.ar      1 UNK         0.0850 
     10 C10       -10.5270   -5.2541   38.3378 C.ar      1 UNK         0.0850 
     11 C11        -6.7626  -15.6962   37.3573 C.ar      1 UNK         0.2200 
     12 C12        -4.9695  -14.0790   37.0596 C.ar      1 UNK         0.2200 
     13 C13        -8.9161   -9.9897   38.0321 C.2       1 UNK        -0.1150 
     14 C14        -7.9549  -10.9278   37.9378 C.2       1 UNK        -0.0970 
     15 C15        -8.5866   -8.5502   38.1563 C.2       1 UNK         0.5850 
     16 C16       -12.7484   -3.3832   37.7156 C.3       1 UNK         0.1100 
     17 C17        -9.1448   -3.6444   39.5005 C.3       1 UNK         0.1100 
     18 N18        -8.1818  -12.2948   37.8290 N.pl3     1 UNK        -0.5717 
     19 O19        -7.4442   -8.1818   38.4367 O.2       1 UNK        -0.4700 
     20 O20       -12.8238   -4.7718   37.4356 O.3       1 UNK        -0.2850 
     21 O21       -10.3622   -3.9823   38.8507 O.3       1 UNK        -0.2850 
     22 F22        -7.1940  -16.9792   37.3833 F         1 UNK        -0.2200 
     23 F23        -3.6703  -13.8047   36.7950 F         1 UNK        -0.2200 
     24 H24       -11.0685   -8.8518   36.8805 H         1 UNK         0.1150 
     25 H25       -12.8161   -7.1589   36.6547 H         1 UNK         0.1150 
     26 H26        -8.5918   -6.0266   38.9728 H         1 UNK         0.1150 
     27 H27        -8.7006  -14.8886   37.8066 H         1 UNK         0.1150 
     28 H28        -5.4954  -12.0188   37.2662 H         1 UNK         0.1150 
     29 H29        -4.7167  -16.2182   36.9000 H         1 UNK         0.1150 
     30 H30        -9.9538  -10.2807   38.0253 H         1 UNK         0.1150 
     31 H31        -6.9140  -10.6368   37.9529 H         1 UNK         0.1150 
     32 H32       -13.6542   -2.8986   37.3519 H         1 UNK         0.0300 
     33 H33       -11.9045   -2.9136   37.2088 H         1 UNK         0.0300 
     34 H34       -12.6914   -3.1951   38.7881 H         1 UNK         0.0300 
     35 H35        -9.1885   -2.6046   39.8238 H         1 UNK         0.0300 
     36 H36        -8.2911   -3.7423   38.8284 H         1 UNK         0.0300 
     37 H37        -8.9822   -4.2566   40.3886 H         1 UNK         0.0300 
     38 H38        -9.1362  -12.6123   37.9299 H         1 UNK         0.3537 
@<TRIPOS>BOND
     1    1    2 ar   
     2    1    7 ar   
     3    1   24 1    
     4    2    9 ar   
     5    2   25 1    
     6    3    7 ar   
     7    3   10 ar   
     8    3   26 1    
     9    4    8 ar   
    10    4   11 ar   
    11    4   27 1    
    12    5    8 ar   
    13    5   12 ar   
    14    5   28 1    
    15    6   11 ar   
    16    6   12 ar   
    17    6   29 1    
    18    7   15 1    
    19    8   18 1    
    20    9   10 ar   
    21    9   20 1    
    22   10   21 1    
    23   11   22 1    
    24   12   23 1    
    25   13   14 2    
    26   13   15 1    
    27   13   30 1    
    28   14   18 1    
    29   14   31 1    
    30   15   19 2    
    31   16   20 1    
    32   16   32 1    
    33   16   33 1    
    34   16   34 1    
    35   17   21 1    
    36   17   35 1    
    37   17   36 1    
    38   17   37 1    
    39   18   38 1    
@<TRIPOS>SUBSTRUCTURE
     1 UNK         1 GROUP             0       ****    0 ROOT    
@<TRIPOS>MOLECULE
ZINC44975026_208
38   39    1
SMALL
USER_CHARGES


@<TRIPOS>ATOM
      1 C1         -7.5479  -12.8653   35.2752 C.ar      1 UNK        -0.1150 
      2 C2         -7.0417  -14.1785   35.2769 C.ar      1 UNK        -0.1150 
      3 C3         -9.8661   -7.0294   39.4050 C.ar      1 UNK        -0.1150 
      4 C4         -7.8734  -12.2308   36.4902 C.ar      1 UNK        -0.1150 
      5 C5        -10.3338   -6.2592   38.3246 C.ar      1 UNK        -0.1150 
      6 C6         -6.8638  -14.8579   36.4969 C.ar      1 UNK        -0.1150 
      7 C7        -10.6830   -9.0438   38.3180 C.ar      1 UNK        -0.1150 
      8 C8        -10.0247   -8.4304   39.4085 C.ar      1 UNK        -0.1150 
      9 C9         -7.6924  -12.9048   37.7216 C.ar      1 UNK         0.2000 
     10 C10       -10.9733   -6.8772   37.2218 C.ar      1 UNK         0.0850 
     11 C11       -11.1489   -8.2801   37.2193 C.ar      1 UNK         0.0850 
     12 C12        -7.1888  -14.2269   37.7134 C.ar      1 UNK         0.1800 
     13 C13        -9.0112  -10.6014   40.3519 C.2       1 UNK        -0.1150 
     14 C14        -8.4682  -11.0290   39.1951 C.2       1 UNK        -0.0970 
     15 C15        -9.5005   -9.2195   40.5654 C.2       1 UNK         0.5850 
     16 C16       -11.3000   -4.7725   36.1043 C.3       1 UNK         0.1100 
     17 C17       -11.9496  -10.2399   36.0723 C.3       1 UNK         0.1100 
     18 N18        -8.0072  -12.3164   38.9566 N.pl3     1 UNK        -0.5717 
     19 O19        -9.4462   -8.7228   41.6893 O.2       1 UNK        -0.4700 
     20 O20       -11.4474   -6.1840   36.1272 O.3       1 UNK        -0.2850 
     21 O21       -11.7770   -8.8317   36.1213 O.3       1 UNK        -0.2850 
     22 Cl22       -6.9670  -15.0894   39.1960 Cl        1 UNK        -0.1800 
     23 H23        -7.6885  -12.3414   34.3402 H         1 UNK         0.1150 
     24 H24        -6.7915  -14.6647   34.3446 H         1 UNK         0.1150 
     25 H25        -9.3778   -6.5387   40.2361 H         1 UNK         0.1150 
     26 H26        -8.2657  -11.2270   36.4504 H         1 UNK         0.1150 
     27 H27       -10.1857   -5.1914   38.3665 H         1 UNK         0.1150 
     28 H28        -6.4777  -15.8662   36.5030 H         1 UNK         0.1150 
     29 H29       -10.8305  -10.1119   38.3412 H         1 UNK         0.1150 
     30 H30        -9.0958  -11.2710   41.1944 H         1 UNK         0.1150 
     31 H31        -8.3482  -10.3523   38.3620 H         1 UNK         0.1150 
     32 H32       -11.7286   -4.3824   35.1812 H         1 UNK         0.0300 
     33 H33       -10.2492   -4.4808   36.1282 H         1 UNK         0.0300 
     34 H34       -11.8267   -4.3026   36.9360 H         1 UNK         0.0300 
     35 H35       -12.4423  -10.5082   35.1378 H         1 UNK         0.0300 
     36 H36       -12.5803  -10.5929   36.8891 H         1 UNK         0.0300 
     37 H37       -10.9919  -10.7617   36.1009 H         1 UNK         0.0300 
     38 H38        -7.9076  -12.9489   39.7425 H         1 UNK         0.3537 
@<TRIPOS>BOND
     1    1    2 ar   
     2    1    4 ar   
     3    1   23 1    
     4    2    6 ar   
     5    2   24 1    
     6    3    5 ar   
     7    3    8 ar   
     8    3   25 1    
     9    4    9 ar   
    10    4   26 1    
    11    5   10 ar   
    12    5   27 1    
    13    6   12 ar   
    14    6   28 1    
    15    7    8 ar   
    16    7   11 ar   
    17    7   29 1    
    18    8   15 1    
    19    9   12 ar   
    20    9   18 1    
    21   10   11 ar   
    22   10   20 1    
    23   11   21 1    
    24   12   22 1    
    25   13   14 2    
    26   13   15 1    
    27   13   30 1    
    28   14   18 1    
    29   14   31 1    
    30   15   19 2    
    31   16   20 1    
    32   16   32 1    
    33   16   33 1    
    34   16   34 1    
    35   17   21 1    
    36   17   35 1    
    37   17   36 1    
    38   17   37 1    
    39   18   38 1    
@<TRIPOS>SUBSTRUCTURE
     1 UNK         1 GROUP             0       ****    0 ROOT    
@<TRIPOS>MOLECULE
ZINC45028643_32
34   35    1
SMALL
USER_CHARGES


@<TRIPOS>ATOM
      1 C1        -12.6559  -10.3737   37.5518 C.ar      1 UNK        -0.1150 
      2 C2        -13.5352   -9.4295   36.9954 C.ar      1 UNK        -0.1150 
      3 C3        -11.8372  -15.0437   39.7001 C.ar      1 UNK        -0.4470 
      4 C4        -11.6974   -8.6298   38.9429 C.ar      1 UNK        -0.1150 
      5 C5        -10.1313  -13.3699   39.3705 C.ar      1 UNK        -0.4470 
      6 C6        -12.7857  -14.0093   39.6551 C.ar      1 UNK         0.4730 
      7 C7        -11.7356   -9.9859   38.5485 C.ar      1 UNK        -0.1150 
      8 C8        -10.4785  -14.7187   39.5573 C.ar      1 UNK         0.1770 
      9 C9        -13.5229   -8.0829   37.4072 C.ar      1 UNK         0.0850 
     10 C10       -12.5746   -7.6620   38.3865 C.ar      1 UNK         0.0850 
     11 C11       -11.1488  -12.3886   39.3258 C.ar      1 UNK         0.3700 
     12 C12       -10.7608  -10.9462   39.1578 C.2       1 UNK         0.7000 
     13 C13        -9.4188  -15.7987   39.6109 C.3       1 UNK        -0.0650 
     14 C14       -14.8583   -6.0628   37.3771 C.3       1 UNK         0.1100 
     15 C15       -11.5512   -5.9110   39.7026 C.3       1 UNK         0.1100 
     16 N16       -12.4551  -12.7180   39.4755 N.ar      1 UNK        -0.6780 
     17 O17        -9.6478  -10.5501   39.5166 O.2       1 UNK        -0.4700 
     18 O18       -14.4524   -7.2815   36.7739 O.3       1 UNK        -0.2850 
     19 O19       -12.5171   -6.3308   38.7495 O.3       1 UNK        -0.2850 
     20 H20       -12.6999  -11.3970   37.2072 H         1 UNK         0.1150 
     21 H21       -14.2425   -9.7422   36.2414 H         1 UNK         0.1150 
     22 H22       -12.1565  -16.0649   39.8475 H         1 UNK         0.1550 
     23 H23       -10.9661   -8.3516   39.6863 H         1 UNK         0.1150 
     24 H24        -9.0958  -13.0745   39.2673 H         1 UNK         0.1550 
     25 H25       -13.8382  -14.2249   39.7659 H         1 UNK         0.0120 
     26 H26        -9.6234  -16.5678   38.8658 H         1 UNK         0.0600 
     27 H27        -8.4263  -15.3922   39.4150 H         1 UNK         0.0600 
     28 H28        -9.4071  -16.2670   40.5953 H         1 UNK         0.0600 
     29 H29       -15.7878   -5.7306   36.9155 H         1 UNK         0.0300 
     30 H30       -14.1206   -5.2760   37.2184 H         1 UNK         0.0300 
     31 H31       -15.0489   -6.1801   38.4449 H         1 UNK         0.0300 
     32 H32       -11.7065   -6.3945   40.6679 H         1 UNK         0.0300 
     33 H33       -11.6440   -4.8360   39.8560 H         1 UNK         0.0300 
     34 H34       -10.5352   -6.1055   39.3565 H         1 UNK         0.0300 
@<TRIPOS>BOND
     1    1    2 ar   
     2    1    7 ar   
     3    1   20 1    
     4    2    9 ar   
     5    2   21 1    
     6    3    6 ar   
     7    3    8 ar   
     8    3   22 1    
     9    4    7 ar   
    10    4   10 ar   
    11    4   23 1    
    12    5    8 ar   
    13    5   11 ar   
    14    5   24 1    
    15    6   16 ar   
    16    6   25 1    
    17    7   12 1    
    18    8   13 1    
    19    9   10 ar   
    20    9   18 1    
    21   10   19 1    
    22   11   12 1    
    23   11   16 ar   
    24   12   17 2    
    25   13   26 1    
    26   13   27 1    
    27   13   28 1    
    28   14   18 1    
    29   14   29 1    
    30   14   30 1    
    31   14   31 1    
    32   15   19 1    
    33   15   32 1    
    34   15   33 1    
    35   15   34 1    
@<TRIPOS>SUBSTRUCTURE
     1 UNK         1 GROUP             0       ****    0 ROOT    
@<TRIPOS>MOLECULE
ZINC45028769_68
35   36    1
SMALL
USER_CHARGES


@<TRIPOS>ATOM
      1 C1         -5.3140   -9.6177   41.3396 C.ar      1 UNK         0.2270 
      2 C2         -6.3911   -3.7644   39.5609 C.ar      1 UNK        -0.1150 
      3 C3         -6.8773   -2.9718   38.5074 C.ar      1 UNK        -0.1150 
      4 C4         -5.7114   -8.2920   41.5741 C.ar      1 UNK        -0.4470 
      5 C5         -4.9768   -9.9969   40.0312 C.ar      1 UNK        -0.4470 
      6 C6         -7.5200   -5.6894   38.6045 C.ar      1 UNK        -0.1150 
      7 C7         -6.6918   -5.1398   39.6095 C.ar      1 UNK        -0.1150 
      8 C8         -7.6722   -3.5196   37.4816 C.ar      1 UNK         0.0850 
      9 C9         -8.0173   -4.9040   37.5315 C.ar      1 UNK         0.0850 
     10 C10        -5.7625   -7.3848   40.4924 C.ar      1 UNK         0.3700 
     11 C11        -5.0404   -9.0379   39.0109 C.ar      1 UNK         0.5716 
     12 C12        -6.1681   -5.9608   40.7464 C.2       1 UNK         0.7000 
     13 C13        -8.5683   -3.0626   35.2715 C.3       1 UNK         0.1100 
     14 C14        -9.1642   -6.8227   36.6063 C.3       1 UNK         0.1100 
     15 C15        -4.7492   -8.4098   36.7121 C.3       1 UNK         0.1100 
     16 N16        -5.4223   -7.7645   39.2373 N.ar      1 UNK        -0.6780 
     17 O17        -6.0654   -5.4661   41.8721 O.2       1 UNK        -0.4700 
     18 O18        -8.0571   -2.6102   36.5154 O.3       1 UNK        -0.2850 
     19 O19        -8.8347   -5.4417   36.5567 O.3       1 UNK        -0.2850 
     20 O20        -4.7082   -9.4082   37.7265 O.3       1 UNK        -0.2866 
     21 H21        -5.2677  -10.3317   42.1491 H         1 UNK         0.0650 
     22 H22        -5.7801   -3.3122   40.3301 H         1 UNK         0.1150 
     23 H23        -6.6313   -1.9204   38.4775 H         1 UNK         0.1150 
     24 H24        -5.9708   -7.9677   42.5729 H         1 UNK         0.1550 
     25 H25        -4.6663  -11.0069   39.8090 H         1 UNK         0.1550 
     26 H26        -7.7666   -6.7367   38.6787 H         1 UNK         0.1150 
     27 H27        -8.5956   -2.2254   34.5744 H         1 UNK         0.0300 
     28 H28        -9.5894   -3.4317   35.3714 H         1 UNK         0.0300 
     29 H29        -7.9362   -3.8338   34.8287 H         1 UNK         0.0300 
     30 H30        -9.7967   -7.0699   35.7538 H         1 UNK         0.0300 
     31 H31        -9.7230   -7.0682   37.5104 H         1 UNK         0.0300 
     32 H32        -8.2737   -7.4498   36.5461 H         1 UNK         0.0300 
     33 H33        -4.4588   -8.8484   35.7579 H         1 UNK         0.0300 
     34 H34        -4.0553   -7.5962   36.9286 H         1 UNK         0.0300 
     35 H35        -5.7530   -7.9983   36.5972 H         1 UNK         0.0300 
@<TRIPOS>BOND
     1    1    4 ar   
     2    1    5 ar   
     3    1   21 1    
     4    2    3 ar   
     5    2    7 ar   
     6    2   22 1    
     7    3    8 ar   
     8    3   23 1    
     9    4   10 ar   
    10    4   24 1    
    11    5   11 ar   
    12    5   25 1    
    13    6    7 ar   
    14    6    9 ar   
    15    6   26 1    
    16    7   12 1    
    17    8    9 ar   
    18    8   18 1    
    19    9   19 1    
    20   10   12 1    
    21   10   16 ar   
    22   11   16 ar   
    23   11   20 1    
    24   12   17 2    
    25   13   18 1    
    26   13   27 1    
    27   13   28 1    
    28   13   29 1    
    29   14   19 1    
    30   14   30 1    
    31   14   31 1    
    32   14   32 1    
    33   15   20 1    
    34   15   33 1    
    35   15   34 1    
    36   15   35 1    
@<TRIPOS>SUBSTRUCTURE
     1 UNK         1 GROUP             0       ****    0 ROOT    
@<TRIPOS>MOLECULE
ZINC45028770_54
35   36    1
SMALL
USER_CHARGES


@<TRIPOS>ATOM
      1 C1         -5.1728   -9.6500   41.2588 C.ar      1 UNK         0.2270 
      2 C2         -5.6157   -8.3425   41.5123 C.ar      1 UNK        -0.4470 
      3 C3         -4.8619  -10.0101   39.9388 C.ar      1 UNK        -0.4470 
      4 C4         -6.6363   -3.8502   39.5626 C.ar      1 UNK        -0.1150 
      5 C5         -7.6897   -5.8583   38.6639 C.ar      1 UNK        -0.1150 
      6 C6         -8.0704   -3.7043   37.6061 C.ar      1 UNK        -0.1150 
      7 C7         -6.8416   -5.2472   39.6168 C.ar      1 UNK        -0.1150 
      8 C8         -7.2457   -3.0676   38.5531 C.ar      1 UNK         0.0850 
      9 C9         -8.3041   -5.0921   37.6457 C.ar      1 UNK         0.0850 
     10 C10        -5.7378   -7.4349   40.4370 C.ar      1 UNK         0.3700 
     11 C11        -4.9959   -9.0507   38.9255 C.ar      1 UNK         0.5716 
     12 C12        -6.1913   -6.0299   40.7122 C.2       1 UNK         0.7000 
     13 C13        -6.2494   -1.0358   39.3585 C.3       1 UNK         0.1100 
     14 C14        -9.3575   -7.0177   36.6703 C.3       1 UNK         0.1100 
     15 C15        -4.8058   -8.4076   36.6199 C.3       1 UNK         0.1100 
     16 N16        -5.4217   -7.7943   39.1696 N.ar      1 UNK        -0.6780 
     17 O17        -6.0284   -5.5215   41.8247 O.2       1 UNK        -0.4700 
     18 O18        -7.0880   -1.7044   38.4277 O.3       1 UNK        -0.2850 
     19 O19        -9.1307   -5.6156   36.6753 O.3       1 UNK        -0.2850 
     20 O20        -4.6871   -9.4036   37.6306 O.3       1 UNK        -0.2866 
     21 H21        -5.0722  -10.3644   42.0629 H         1 UNK         0.0650 
     22 H22        -5.8567   -8.0323   42.5201 H         1 UNK         0.1550 
     23 H23        -4.5178  -11.0057   39.7019 H         1 UNK         0.1550 
     24 H24        -6.0008   -3.3975   40.3095 H         1 UNK         0.1150 
     25 H25        -7.8578   -6.9226   38.7270 H         1 UNK         0.1150 
     26 H26        -8.5369   -3.1136   36.8316 H         1 UNK         0.1150 
     27 H27        -6.2300    0.0286   39.1242 H         1 UNK         0.0300 
     28 H28        -5.2239   -1.4038   39.3061 H         1 UNK         0.0300 
     29 H29        -6.6208   -1.1415   40.3787 H         1 UNK         0.0300 
     30 H30       -10.0151   -7.2727   35.8394 H         1 UNK         0.0300 
     31 H31        -9.8458   -7.3455   37.5889 H         1 UNK         0.0300 
     32 H32        -8.4271   -7.5717   36.5372 H         1 UNK         0.0300 
     33 H33        -4.5221   -8.8323   35.6574 H         1 UNK         0.0300 
     34 H34        -4.1457   -7.5613   36.8164 H         1 UNK         0.0300 
     35 H35        -5.8314   -8.0452   36.5345 H         1 UNK         0.0300 
@<TRIPOS>BOND
     1    1    2 ar   
     2    1    3 ar   
     3    1   21 1    
     4    2   10 ar   
     5    2   22 1    
     6    3   11 ar   
     7    3   23 1    
     8    4    7 ar   
     9    4    8 ar   
    10    4   24 1    
    11    5    7 ar   
    12    5    9 ar   
    13    5   25 1    
    14    6    8 ar   
    15    6    9 ar   
    16    6   26 1    
    17    7   12 1    
    18    8   18 1    
    19    9   19 1    
    20   10   12 1    
    21   10   16 ar   
    22   11   16 ar   
    23   11   20 1    
    24   12   17 2    
    25   13   18 1    
    26   13   27 1    
    27   13   28 1    
    28   13   29 1    
    29   14   19 1    
    30   14   30 1    
    31   14   31 1    
    32   14   32 1    
    33   15   20 1    
    34   15   33 1    
    35   15   34 1    
    36   15   35 1    
@<TRIPOS>SUBSTRUCTURE
     1 UNK         1 GROUP             0       ****    0 ROOT    
@<TRIPOS>MOLECULE
ZINC46295645_16
44   46    1
SMALL
USER_CHARGES


@<TRIPOS>ATOM
      1 C1         -5.1493   -7.3024   38.0757 C.ar      1 UNK        -0.1150 
      2 C2         -4.8203   -7.7655   36.7881 C.ar      1 UNK        -0.1150 
      3 C3         -8.1581   -6.3423   38.7031 C.ar      1 UNK        -0.1150 
      4 C4         -7.0437   -4.3371   39.5203 C.ar      1 UNK        -0.1150 
      5 C5         -5.4284  -10.0249   37.4478 C.ar      1 UNK        -0.1150 
      6 C6         -7.2529   -5.7289   39.5991 C.ar      1 UNK        -0.1150 
      7 C7         -5.7615   -9.5711   38.7416 C.ar      1 UNK        -0.1150 
      8 C8         -5.6592   -8.1891   39.0597 C.ar      1 UNK        -0.0383 
      9 C9         -8.8049   -5.5904   37.6916 C.ar      1 UNK         0.0850 
     10 C10        -8.5559   -4.1995   37.6073 C.ar      1 UNK         0.0850 
     11 C11        -4.9687   -9.1254   36.4707 C.ar      1 UNK         0.2200 
     12 C12        -7.6892   -3.5759   38.5305 C.ar      1 UNK         0.1800 
     13 C13        -6.5682   -6.5243   40.6796 C.2       1 UNK         0.6150 
     14 C14        -6.1867  -10.6016   39.7786 C.3       1 UNK        -0.0050 
     15 C15        -6.6513   -9.9908   41.1075 C.3       1 UNK        -0.1200 
     16 C16        -5.8653   -8.7205   41.4585 C.3       1 UNK        -0.0500 
     17 C17        -9.3773   -2.6590   34.3962 C.3       1 UNK        -0.1800 
     18 C18        -9.8684   -7.5477   36.7815 C.3       1 UNK         0.1100 
     19 C19        -8.6274   -3.5924   35.3478 C.3       1 UNK         0.1400 
     20 N20        -6.0192   -7.7365   40.3773 N.am      1 UNK        -0.0317 
     21 O21        -6.5103   -6.0320   41.8070 O.2       1 UNK        -0.5000 
     22 O22        -9.6810   -6.1404   36.7786 O.3       1 UNK        -0.2850 
     23 O23        -9.1727   -3.4362   36.6482 O.3       1 UNK        -0.2850 
     24 F24        -4.6545   -9.5717   35.2327 F         1 UNK        -0.2200 
     25 Cl25       -7.3910   -1.8771   38.4438 Cl        1 UNK        -0.1800 
     26 H26        -5.0035   -6.2539   38.2899 H         1 UNK         0.1150 
     27 H27        -4.4483   -7.0798   36.0413 H         1 UNK         0.1150 
     28 H28        -8.3366   -7.4020   38.8047 H         1 UNK         0.1150 
     29 H29        -6.3825   -3.8476   40.2218 H         1 UNK         0.1150 
     30 H30        -5.5103  -11.0726   37.1982 H         1 UNK         0.1150 
     31 H31        -6.9663  -11.2440   39.3668 H         1 UNK         0.0600 
     32 H32        -5.3243  -11.2433   39.9653 H         1 UNK         0.0600 
     33 H33        -7.7065   -9.7256   41.0251 H         1 UNK         0.0600 
     34 H34        -6.5856  -10.7289   41.9078 H         1 UNK         0.0600 
     35 H35        -6.2016   -8.3552   42.4310 H         1 UNK         0.0600 
     36 H36        -4.8050   -8.9489   41.5737 H         1 UNK         0.0600 
     37 H37       -10.4394   -2.9033   34.3710 H         1 UNK         0.0600 
     38 H38        -9.2792   -1.6207   34.7134 H         1 UNK         0.0600 
     39 H39        -8.9888   -2.7394   33.3812 H         1 UNK         0.0600 
     40 H40       -10.5380   -7.8219   35.9664 H         1 UNK         0.0300 
     41 H41       -10.3265   -7.8864   37.7115 H         1 UNK         0.0300 
     42 H42        -8.9270   -8.0772   36.6262 H         1 UNK         0.0300 
     43 H43        -7.5655   -3.3408   35.3558 H         1 UNK         0.0300 
     44 H44        -8.7170   -4.6222   35.0006 H         1 UNK         0.0300 
@<TRIPOS>BOND
     1    1    2 ar   
     2    1    8 ar   
     3    1   26 1    
     4    2   11 ar   
     5    2   27 1    
     6    3    6 ar   
     7    3    9 ar   
     8    3   28 1    
     9    4    6 ar   
    10    4   12 ar   
    11    4   29 1    
    12    5    7 ar   
    13    5   11 ar   
    14    5   30 1    
    15    6   13 1    
    16    7    8 ar   
    17    7   14 1    
    18    8   20 1    
    19    9   10 ar   
    20    9   22 1    
    21   10   12 ar   
    22   10   23 1    
    23   11   24 1    
    24   12   25 1    
    25   13   20 am   BACKBONE|DICT|INTERRES
    26   13   21 2    
    27   14   15 1    
    28   14   31 1    
    29   14   32 1    
    30   15   16 1    
    31   15   33 1    
    32   15   34 1    
    33   16   20 1    
    34   16   35 1    
    35   16   36 1    
    36   17   19 1    
    37   17   37 1    
    38   17   38 1    
    39   17   39 1    
    40   18   22 1    
    41   18   40 1    
    42   18   41 1    
    43   18   42 1    
    44   19   23 1    
    45   19   43 1    
    46   19   44 1    
@<TRIPOS>SUBSTRUCTURE
     1 UNK         1 GROUP             0       ****    0 ROOT    
@<TRIPOS>MOLECULE
ZINC46295820_10
45   47    1
SMALL
USER_CHARGES


@<TRIPOS>ATOM
      1 C1         -4.6442   -6.7824   38.1196 C.ar      1 UNK        -0.1150 
      2 C2         -4.2521   -7.2197   36.8408 C.ar      1 UNK        -0.1150 
      3 C3         -7.6907   -5.9094   38.6655 C.ar      1 UNK        -0.1150 
      4 C4         -6.6525   -3.8860   39.5402 C.ar      1 UNK        -0.1150 
      5 C5         -4.7934   -9.5071   37.4601 C.ar      1 UNK        -0.1150 
      6 C6         -6.8320   -5.2835   39.5957 C.ar      1 UNK        -0.1150 
      7 C7         -5.1909   -9.0790   38.7444 C.ar      1 UNK        -0.1150 
      8 C8         -5.1535   -7.6972   39.0779 C.ar      1 UNK        -0.0383 
      9 C9         -8.3206   -5.1610   37.6433 C.ar      1 UNK         0.0850 
     10 C10        -7.2825   -3.1148   38.5347 C.ar      1 UNK         0.0850 
     11 C11        -8.1031   -3.7648   37.5860 C.ar      1 UNK         0.0850 
     12 C12        -4.3345   -8.5813   36.5073 C.ar      1 UNK         0.2200 
     13 C13        -6.1610   -6.0766   40.6867 C.2       1 UNK         0.6150 
     14 C14        -5.6137  -10.1355   39.7560 C.3       1 UNK        -0.0050 
     15 C15        -6.1520   -9.5566   41.0707 C.3       1 UNK        -0.1200 
     16 C16        -5.4268   -8.2628   41.4632 C.3       1 UNK        -0.0500 
     17 C17        -9.3315   -7.1260   36.6920 C.3       1 UNK         0.1100 
     18 C18        -6.3727   -1.0598   39.3910 C.3       1 UNK         0.1100 
     19 C19        -8.0390   -3.0612   35.3670 C.3       1 UNK         0.1100 
     20 N20        -5.5744   -7.2718   40.3872 N.am      1 UNK        -0.0317 
     21 O21        -6.1435   -5.5960   41.8211 O.2       1 UNK        -0.5000 
     22 O22        -9.1465   -5.7184   36.6884 O.3       1 UNK        -0.2850 
     23 O23        -7.1346   -1.7485   38.4112 O.3       1 UNK        -0.2850 
     24 O24        -8.7126   -3.0155   36.6130 O.3       1 UNK        -0.2850 
     25 F25        -3.9579   -9.0033   35.2781 F         1 UNK        -0.2200 
     26 H26        -4.5483   -5.7306   38.3462 H         1 UNK         0.1150 
     27 H27        -3.8823   -6.5125   36.1132 H         1 UNK         0.1150 
     28 H28        -7.8435   -6.9745   38.7470 H         1 UNK         0.1150 
     29 H29        -6.0191   -3.4262   40.2840 H         1 UNK         0.1150 
     30 H30        -4.8253  -10.5549   37.1994 H         1 UNK         0.1150 
     31 H31        -6.3507  -10.8046   39.3099 H         1 UNK         0.0600 
     32 H32        -4.7339  -10.7437   39.9710 H         1 UNK         0.0600 
     33 H33        -7.2125   -9.3294   40.9503 H         1 UNK         0.0600 
     34 H34        -6.0894  -10.3004   41.8660 H         1 UNK         0.0600 
     35 H35        -5.8135   -7.9217   42.4255 H         1 UNK         0.0600 
     36 H36        -4.3640   -8.4542   41.6167 H         1 UNK         0.0600 
     37 H37        -9.9787   -7.4058   35.8608 H         1 UNK         0.0300 
     38 H38        -9.8130   -7.4618   37.6114 H         1 UNK         0.0300 
     39 H39        -8.3846   -7.6532   36.5643 H         1 UNK         0.0300 
     40 H40        -6.3915    0.0079   39.1738 H         1 UNK         0.0300 
     41 H41        -5.3300   -1.3795   39.3821 H         1 UNK         0.0300 
     42 H42        -6.7871   -1.1994   40.3905 H         1 UNK         0.0300 
     43 H43        -8.5542   -2.4212   34.6510 H         1 UNK         0.0300 
     44 H44        -8.0164   -4.0715   34.9573 H         1 UNK         0.0300 
     45 H45        -7.0139   -2.7004   35.4626 H         1 UNK         0.0300 
@<TRIPOS>BOND
     1    1    2 ar   
     2    1    8 ar   
     3    1   26 1    
     4    2   12 ar   
     5    2   27 1    
     6    3    6 ar   
     7    3    9 ar   
     8    3   28 1    
     9    4    6 ar   
    10    4   10 ar   
    11    4   29 1    
    12    5    7 ar   
    13    5   12 ar   
    14    5   30 1    
    15    6   13 1    
    16    7    8 ar   
    17    7   14 1    
    18    8   20 1    
    19    9   11 ar   
    20    9   22 1    
    21   10   11 ar   
    22   10   23 1    
    23   11   24 1    
    24   12   25 1    
    25   13   20 am   BACKBONE|DICT|INTERRES
    26   13   21 2    
    27   14   15 1    
    28   14   31 1    
    29   14   32 1    
    30   15   16 1    
    31   15   33 1    
    32   15   34 1    
    33   16   20 1    
    34   16   35 1    
    35   16   36 1    
    36   17   22 1    
    37   17   37 1    
    38   17   38 1    
    39   17   39 1    
    40   18   23 1    
    41   18   40 1    
    42   18   41 1    
    43   18   42 1    
    44   19   24 1    
    45   19   43 1    
    46   19   44 1    
    47   19   45 1    
@<TRIPOS>SUBSTRUCTURE
     1 UNK         1 GROUP             0       ****    0 ROOT    
@<TRIPOS>MOLECULE
ZINC46422346_18
51   53    1
SMALL
USER_CHARGES


@<TRIPOS>ATOM
      1 C1         -9.8207  -21.2154   36.4286 C.ar      1 UNK        -0.6890 
      2 C2        -15.9743  -13.7167   38.7186 C.ar      1 UNK        -0.1150 
      3 C3        -14.1967  -12.2097   39.4135 C.ar      1 UNK        -0.1150 
      4 C4        -10.6100  -21.8478   37.3931 C.ar      1 UNK         0.6530 
      5 C5        -10.1085  -19.8685   36.1924 C.ar      1 UNK         0.6530 
      6 C6        -14.7052  -13.5177   39.3030 C.ar      1 UNK        -0.1150 
      7 C7        -16.7126  -12.6223   38.2062 C.ar      1 UNK         0.0850 
      8 C8        -14.9168  -11.1004   38.9340 C.ar      1 UNK         0.0850 
      9 C9        -16.1714  -11.3156   38.2967 C.ar      1 UNK         0.0850 
     10 C10       -11.7722  -19.9190   37.7502 C.ar      1 UNK         1.0420 
     11 C11       -13.9149  -14.6675   39.8525 C.2       1 UNK         0.6150 
     12 C12       -14.7263  -19.1079   40.0215 C.3       1 UNK        -0.1200 
     13 C13       -14.0675  -17.8413   40.5812 C.3       1 UNK        -0.1200 
     14 C14       -13.6749  -20.0007   39.3384 C.3       1 UNK         0.0900 
     15 C15       -13.1170  -17.8496   38.1787 C.3       1 UNK         0.0900 
     16 C16       -13.3129  -17.0479   39.4846 C.3       1 UNK         0.1400 
     17 C17       -18.5425  -14.0442   37.5440 C.3       1 UNK         0.1100 
     18 C18       -15.1117   -8.7131   39.1988 C.3       1 UNK         0.1100 
     19 C19       -16.7792  -10.1877   36.3456 C.3       1 UNK         0.1100 
     20 N20       -11.5831  -21.1983   38.0465 N.ar      1 UNK        -0.8390 
     21 N21       -11.0844  -19.2284   36.8511 N.ar      1 UNK        -0.8390 
     22 N22       -12.7909  -19.2549   38.4347 N.pl3     1 UNK        -0.6200 
     23 N23       -14.0207  -15.8137   39.1697 N.am      1 UNK        -0.5000 
     24 O24       -13.1857  -14.5295   40.8311 O.2       1 UNK        -0.5000 
     25 O25       -17.9533  -12.7547   37.6151 O.3       1 UNK        -0.2850 
     26 O26       -14.3036   -9.8768   39.1085 O.3       1 UNK        -0.2850 
     27 O27       -16.8802  -10.2711   37.7586 O.3       1 UNK        -0.2850 
     28 H28        -9.0363  -21.7349   35.8995 H         1 UNK         0.1970 
     29 H29       -16.3736  -14.7177   38.6791 H         1 UNK         0.1150 
     30 H30       -13.2375  -12.0491   39.8862 H         1 UNK         0.1150 
     31 H31       -10.4609  -22.8880   37.6421 H         1 UNK         0.0110 
     32 H32        -9.5513  -19.2978   35.4643 H         1 UNK         0.0110 
     33 H33       -15.2214  -19.6624   40.8195 H         1 UNK         0.0600 
     34 H34       -15.5055  -18.8350   39.3090 H         1 UNK         0.0600 
     35 H35       -14.8049  -17.2234   41.0953 H         1 UNK         0.0600 
     36 H36       -13.3508  -18.1381   41.3483 H         1 UNK         0.0600 
     37 H37       -13.0566  -20.4746   40.1027 H         1 UNK         0.0600 
     38 H38       -14.1626  -20.8077   38.7894 H         1 UNK         0.0600 
     39 H39       -14.0287  -17.8408   37.5810 H         1 UNK         0.0600 
     40 H40       -12.3617  -17.3447   37.5761 H         1 UNK         0.0600 
     41 H41       -12.3229  -16.7956   39.8727 H         1 UNK         0.0600 
     42 H42       -19.5194  -13.9657   37.0669 H         1 UNK         0.0300 
     43 H43       -18.6953  -14.4689   38.5370 H         1 UNK         0.0300 
     44 H44       -17.9379  -14.7265   36.9451 H         1 UNK         0.0300 
     45 H45       -16.0190   -8.8862   39.7796 H         1 UNK         0.0300 
     46 H46       -15.3767   -8.3390   38.2101 H         1 UNK         0.0300 
     47 H47       -14.5483   -7.9271   39.7013 H         1 UNK         0.0300 
     48 H48       -17.2568   -9.2703   36.0019 H         1 UNK         0.0300 
     49 H49       -17.2728  -11.0251   35.8519 H         1 UNK         0.0300 
     50 H50       -15.7359  -10.1611   36.0264 H         1 UNK         0.0300 
     51 H51       -14.5967  -15.8051   38.3448 H         1 UNK         0.3000 
@<TRIPOS>BOND
     1    1    4 ar   
     2    1    5 ar   
     3    1   28 1    
     4    2    6 ar   
     5    2    7 ar   
     6    2   29 1    
     7    3    6 ar   
     8    3    8 ar   
     9    3   30 1    
    10    4   20 ar   
    11    4   31 1    
    12    5   21 ar   
    13    5   32 1    
    14    6   11 1    
    15    7    9 ar   
    16    7   25 1    
    17    8    9 ar   
    18    8   26 1    
    19    9   27 1    
    20   10   20 ar   
    21   10   21 ar   
    22   10   22 1    
    23   11   23 am   BACKBONE|DICT|INTERRES
    24   11   24 2    
    25   12   13 1    
    26   12   14 1    
    27   12   33 1    
    28   12   34 1    
    29   13   16 1    
    30   13   35 1    
    31   13   36 1    
    32   14   22 1    
    33   14   37 1    
    34   14   38 1    
    35   15   16 1    
    36   15   22 1    
    37   15   39 1    
    38   15   40 1    
    39   16   23 1    
    40   16   41 1    
    41   17   25 1    
    42   17   42 1    
    43   17   43 1    
    44   17   44 1    
    45   18   26 1    
    46   18   45 1    
    47   18   46 1    
    48   18   47 1    
    49   19   27 1    
    50   19   48 1    
    51   19   49 1    
    52   19   50 1    
    53   23   51 1    
@<TRIPOS>SUBSTRUCTURE
     1 UNK         1 GROUP             0       ****    0 ROOT    
@<TRIPOS>MOLECULE
ZINC46834717_3
39   41    1
SMALL
USER_CHARGES


@<TRIPOS>ATOM
      1 C1        -16.5619  -21.7682   39.2412 C.ar      1 UNK        -0.3038 
      2 C2        -17.9022  -16.6545   37.4799 C.ar      1 UNK        -0.1150 
      3 C3        -15.8022  -22.9411   39.0318 C.ar      1 UNK        -0.1925 
      4 C4        -19.0672  -15.8697   37.4837 C.ar      1 UNK        -0.1150 
      5 C5        -16.5265  -19.1502   38.8653 C.2       1 UNK        -0.5146 
      6 C6        -16.7048  -14.8406   38.5658 C.ar      1 UNK        -0.1150 
      7 C7        -14.0319  -21.6328   37.9930 C.ar      1 UNK        -0.3245 
      8 C8        -16.0747  -20.5082   38.8301 C.ar      1 UNK         0.2581 
      9 C9        -16.7091  -16.1482   38.0351 C.ar      1 UNK        -0.1150 
     10 C10       -14.8035  -20.4822   38.2098 C.ar      1 UNK         0.3230 
     11 C11       -14.5294  -22.8831   38.4052 C.ar      1 UNK         0.1270 
     12 C12       -19.0751  -14.5661   38.0173 C.ar      1 UNK         0.0850 
     13 C13       -17.8738  -14.0345   38.5774 C.ar      1 UNK         0.0850 
     14 C14       -15.5368  -18.3905   38.2714 C.2       1 UNK         0.1363 
     15 C15       -15.4446  -16.9396   38.0450 C.2       1 UNK         0.7000 
     16 C16       -14.2022  -25.2540   38.5719 C.3       1 UNK         0.1100 
     17 C17       -20.4008  -12.5343   38.1565 C.3       1 UNK         0.1100 
     18 C18       -16.6695  -12.2353   39.6566 C.3       1 UNK         0.1100 
     19 O19       -14.3490  -16.3960   37.9041 O.2       1 UNK        -0.4700 
     20 O20       -14.4840  -19.1844   37.8783 O.3       1 UNK        -0.3115 
     21 O21       -13.7301  -23.9777   38.1667 O.3       1 UNK        -0.3000 
     22 O22       -20.3005  -13.9327   37.9383 O.3       1 UNK        -0.2850 
     23 O23       -17.8759  -12.7680   39.1278 O.3       1 UNK        -0.2850 
     24 H24       -17.5264  -21.8342   39.7209 H         1 UNK         0.1930 
     25 H25       -17.9336  -17.6406   37.0380 H         1 UNK         0.1150 
     26 H26       -16.2197  -23.8799   39.3639 H         1 UNK         0.1571 
     27 H27       -19.9771  -16.2670   37.0576 H         1 UNK         0.1150 
     28 H28       -17.4559  -18.7957   39.2848 H         1 UNK         0.2419 
     29 H29       -15.7734  -14.4768   38.9727 H         1 UNK         0.1150 
     30 H30       -13.0677  -21.5559   37.5162 H         1 UNK         0.1955 
     31 H31       -13.4602  -26.0100   38.3152 H         1 UNK         0.0300 
     32 H32       -14.3572  -25.2970   39.6508 H         1 UNK         0.0300 
     33 H33       -15.1299  -25.5160   38.0613 H         1 UNK         0.0300 
     34 H34       -20.2834  -12.2867   39.2119 H         1 UNK         0.0300 
     35 H35       -21.3930  -12.1987   37.8553 H         1 UNK         0.0300 
     36 H36       -19.6759  -11.9782   37.5607 H         1 UNK         0.0300 
     37 H37       -16.8560  -11.2273   40.0265 H         1 UNK         0.0300 
     38 H38       -15.8941  -12.1650   38.8926 H         1 UNK         0.0300 
     39 H39       -16.3033  -12.8289   40.4952 H         1 UNK         0.0300 
@<TRIPOS>BOND
     1    1    3 ar   
     2    1    8 ar   
     3    1   24 1    
     4    2    4 ar   
     5    2    9 ar   
     6    2   25 1    
     7    3   11 ar   
     8    3   26 1    
     9    4   12 ar   
    10    4   27 1    
    11    5    8 1    
    12    5   14 2    
    13    5   28 1    
    14    6    9 ar   
    15    6   13 ar   
    16    6   29 1    
    17    7   10 ar   
    18    7   11 ar   
    19    7   30 1    
    20    8   10 ar   
    21    9   15 1    
    22   10   20 1    
    23   11   21 1    
    24   12   13 ar   
    25   12   22 1    
    26   13   23 1    
    27   14   15 1    
    28   14   20 1    
    29   15   19 2    
    30   16   21 1    
    31   16   31 1    
    32   16   32 1    
    33   16   33 1    
    34   17   22 1    
    35   17   34 1    
    36   17   35 1    
    37   17   36 1    
    38   18   23 1    
    39   18   37 1    
    40   18   38 1    
    41   18   39 1    
@<TRIPOS>SUBSTRUCTURE
     1 UNK         1 GROUP             0       ****    0 ROOT    
@<TRIPOS>MOLECULE
ZINC46925112_191
51   53    1
SMALL
USER_CHARGES


@<TRIPOS>ATOM
      1 C1         -6.0731  -11.9411   35.3502 C.ar      1 UNK        -0.2222 
      2 C2         -6.4240  -13.2445   35.7496 C.ar      1 UNK        -0.0888 
      3 C3         -5.9065  -10.9233   36.3118 C.ar      1 UNK        -0.2243 
      4 C4         -6.6055  -13.5310   37.1151 C.ar      1 UNK        -0.3541 
      5 C5         -7.6287   -6.3450   37.8795 C.ar      1 UNK        -0.1150 
      6 C6         -8.2260   -5.0759   39.8601 C.ar      1 UNK        -0.1150 
      7 C7         -6.0852  -11.1779   37.6943 C.ar      1 UNK         0.1233 
      8 C8         -6.0156  -10.4030   38.9074 C.ar      1 UNK        -0.2340 
      9 C9         -7.4340   -6.0630   39.2457 C.ar      1 UNK        -0.1150 
     10 C10        -6.4358  -12.5092   38.0659 C.ar      1 UNK         0.2860 
     11 C11        -8.6171   -5.6744   37.1181 C.ar      1 UNK         0.0850 
     12 C12        -9.2126   -4.3779   39.1240 C.ar      1 UNK         0.0850 
     13 C13        -9.4021   -4.6664   37.7516 C.ar      1 UNK         0.0850 
     14 C14        -6.2780  -11.2467   39.9637 C.ar      1 UNK        -0.0293 
     15 C15        -5.6760   -8.9528   38.9080 C.2       1 UNK         0.6150 
     16 C16        -6.2978  -10.9960   41.4384 C.3       1 UNK        -0.0650 
     17 C17        -5.0029   -6.1139   39.9746 C.3       1 UNK        -0.1800 
     18 C18        -8.1144   -7.0402   35.1868 C.3       1 UNK         0.1100 
     19 C19        -9.8588   -3.0759   41.0465 C.3       1 UNK         0.1100 
     20 C20       -10.2659   -3.6424   35.7420 C.3       1 UNK         0.1100 
     21 C21        -6.3782   -6.7995   40.0651 C.3       1 UNK         0.2550 
     22 N22        -6.5433  -12.5049   39.4437 N.pl3     1 UNK        -0.4786 
     23 N23        -6.3533   -8.2455   39.8235 N.am      1 UNK        -0.5000 
     24 O24        -4.9109   -8.4520   38.0876 O.2       1 UNK        -0.5000 
     25 O25        -8.8537   -5.9881   35.7930 O.3       1 UNK        -0.2850 
     26 O26       -10.0173   -3.3995   39.6740 O.3       1 UNK        -0.2850 
     27 O27       -10.3921   -3.9331   37.1255 O.3       1 UNK        -0.2850 
     28 H28        -5.9268  -11.7197   34.3021 H         1 UNK         0.1489 
     29 H29        -6.5494  -14.0221   35.0090 H         1 UNK         0.1359 
     30 H30        -5.6289   -9.9285   35.9948 H         1 UNK         0.1699 
     31 H31        -6.8710  -14.5296   37.4259 H         1 UNK         0.1796 
     32 H32        -7.0007   -7.0912   37.4235 H         1 UNK         0.1150 
     33 H33        -8.0599   -4.8648   40.9044 H         1 UNK         0.1150 
     34 H34        -7.2378  -10.5365   41.7440 H         1 UNK         0.0600 
     35 H35        -6.1810  -11.9232   42.0004 H         1 UNK         0.0600 
     36 H36        -5.4833  -10.3332   41.7326 H         1 UNK         0.0600 
     37 H37        -4.6471   -6.0545   38.9455 H         1 UNK         0.0600 
     38 H38        -5.0536   -5.0929   40.3531 H         1 UNK         0.0600 
     39 H39        -4.2518   -6.6456   40.5589 H         1 UNK         0.0600 
     40 H40        -8.4536   -7.1704   34.1593 H         1 UNK         0.0300 
     41 H41        -8.2671   -7.9885   35.7045 H         1 UNK         0.0300 
     42 H42        -7.0481   -6.8122   35.1538 H         1 UNK         0.0300 
     43 H43       -10.5696   -2.2944   41.3143 H         1 UNK         0.0300 
     44 H44        -8.8576   -2.6957   41.2537 H         1 UNK         0.0300 
     45 H45       -10.0612   -3.9368   41.6847 H         1 UNK         0.0300 
     46 H46       -10.8480   -2.7503   35.5125 H         1 UNK         0.0300 
     47 H47       -10.6640   -4.4531   35.1318 H         1 UNK         0.0300 
     48 H48        -9.2326   -3.4412   35.4549 H         1 UNK         0.0300 
     49 H49        -6.6851   -6.7203   41.1087 H         1 UNK         0.0600 
     50 H50        -6.7655  -13.3106   40.0088 H         1 UNK         0.3577 
     51 H51        -6.9943   -8.7932   40.3734 H         1 UNK         0.3000 
@<TRIPOS>BOND
     1    1    2 ar   
     2    1    3 ar   
     3    1   28 1    
     4    2    4 ar   
     5    2   29 1    
     6    3    7 ar   
     7    3   30 1    
     8    4   10 ar   
     9    4   31 1    
    10    5    9 ar   
    11    5   11 ar   
    12    5   32 1    
    13    6    9 ar   
    14    6   12 ar   
    15    6   33 1    
    16    7    8 ar   
    17    7   10 ar   
    18    8   14 ar   
    19    8   15 1    
    20    9   21 1    
    21   10   22 ar   
    22   11   13 ar   
    23   11   25 1    
    24   12   13 ar   
    25   12   26 1    
    26   13   27 1    
    27   14   16 1    
    28   14   22 ar   
    29   15   23 am   BACKBONE|DICT|INTERRES
    30   15   24 2    
    31   16   34 1    
    32   16   35 1    
    33   16   36 1    
    34   17   21 1    
    35   17   37 1    
    36   17   38 1    
    37   17   39 1    
    38   18   25 1    
    39   18   40 1    
    40   18   41 1    
    41   18   42 1    
    42   19   26 1    
    43   19   43 1    
    44   19   44 1    
    45   19   45 1    
    46   20   27 1    
    47   20   46 1    
    48   20   47 1    
    49   20   48 1    
    50   21   23 1    
    51   21   49 1    
    52   22   50 1    
    53   23   51 1    
@<TRIPOS>SUBSTRUCTURE
     1 UNK         1 GROUP             0       ****    0 ROOT    
@<TRIPOS>MOLECULE
ZINC47553875_32
44   46    1
SMALL
USER_CHARGES


@<TRIPOS>ATOM
      1 C1         -5.8466  -11.6183   35.5408 C.ar      1 UNK        -0.1150 
      2 C2        -10.5416   -4.7042   38.9211 C.ar      1 UNK        -0.4470 
      3 C3         -6.2501  -12.9158   35.1695 C.ar      1 UNK        -0.1150 
      4 C4         -6.0292  -11.1778   36.8657 C.ar      1 UNK        -0.1150 
      5 C5        -10.0069   -5.8675   39.5000 C.ar      1 UNK         0.2270 
      6 C6         -7.0259  -13.3255   37.4436 C.ar      1 UNK        -0.1150 
      7 C7        -10.3991   -4.5115   37.5385 C.ar      1 UNK         0.4730 
      8 C8         -6.8416  -13.7762   36.1201 C.ar      1 UNK         0.1500 
      9 C9         -6.6058  -12.0344   37.8288 C.ar      1 UNK         0.2000 
     10 C10        -9.3460   -6.7970   38.6641 C.ar      1 UNK        -0.2070 
     11 C11        -9.2584   -6.5081   37.2878 C.ar      1 UNK         0.5716 
     12 C12        -6.9962  -11.8859   41.5333 C.ar      1 UNK        -0.1150 
     13 C13        -6.5442  -12.3029   40.3349 C.ar      1 UNK         0.1225 
     14 C14        -7.7761  -10.6431   41.6605 C.ar      1 UNK         0.4700 
     15 C15        -7.9477   -9.8756   40.3803 C.ar      1 UNK         0.4529 
     16 C16        -8.6582   -8.5465   40.3403 C.2       1 UNK         0.3238 
     17 C17        -5.6510  -13.5301   40.2225 C.3       1 UNK        -0.1800 
     18 C18        -8.5374   -7.1178   35.0770 C.3       1 UNK         0.1100 
     19 C19        -7.3002  -15.1732   35.7313 C.3       1 UNK         0.4500 
     20 N20        -9.7726   -5.3893   36.7329 N.ar      1 UNK        -0.6780 
     21 N21        -7.4791  -10.3563   39.2616 N.2       1 UNK        -0.3551 
     22 N22        -6.8119  -11.5612   39.1561 N.pl3     1 UNK        -0.2441 
     23 N23        -8.7585   -8.0154   39.1040 N.am      1 UNK        -0.3850 
     24 O24        -8.2295  -10.2959   42.7525 O.2       1 UNK        -0.4700 
     25 O25        -9.1039   -7.9871   41.3406 O.2       1 UNK        -0.5000 
     26 O26        -8.6141   -7.4139   36.4670 O.3       1 UNK        -0.2866 
     27 F27        -6.7012  -15.5876   34.6145 F         1 UNK        -0.2000 
     28 F28        -7.0168  -16.0360   36.7075 F         1 UNK        -0.2000 
     29 F29        -8.6176  -15.1627   35.5356 F         1 UNK        -0.2000 
     30 H30        -5.4002  -10.9599   34.8093 H         1 UNK         0.1150 
     31 H31       -11.0530   -3.9736   39.5296 H         1 UNK         0.1550 
     32 H32        -6.1135  -13.2500   34.1508 H         1 UNK         0.1150 
     33 H33        -5.7217  -10.1801   37.1456 H         1 UNK         0.1150 
     34 H34       -10.1201   -6.0123   40.5624 H         1 UNK         0.0650 
     35 H35        -7.5044  -13.9788   38.1573 H         1 UNK         0.1150 
     36 H36       -10.7998   -3.6273   37.0652 H         1 UNK         0.0120 
     37 H37        -6.7746  -12.4310   42.4380 H         1 UNK         0.1150 
     38 H38        -6.2519  -14.4388   40.1793 H         1 UNK         0.0600 
     39 H39        -5.0018  -13.6032   41.0957 H         1 UNK         0.0600 
     40 H40        -4.9974  -13.4987   39.3508 H         1 UNK         0.0600 
     41 H41        -8.0069   -7.9194   34.5639 H         1 UNK         0.0300 
     42 H42        -7.9917   -6.1902   34.8975 H         1 UNK         0.0300 
     43 H43        -9.5304   -7.0382   34.6321 H         1 UNK         0.0300 
     44 H44        -8.3427   -8.5773   38.3708 H         1 UNK         0.3000 
@<TRIPOS>BOND
     1    1    3 ar   
     2    1    4 ar   
     3    1   30 1    
     4    2    5 ar   
     5    2    7 ar   
     6    2   31 1    
     7    3    8 ar   
     8    3   32 1    
     9    4    9 ar   
    10    4   33 1    
    11    5   10 ar   
    12    5   34 1    
    13    6    8 ar   
    14    6    9 ar   
    15    6   35 1    
    16    7   20 ar   
    17    7   36 1    
    18    8   19 1    
    19    9   22 1    
    20   10   11 ar   
    21   10   23 1    
    22   11   20 ar   
    23   11   26 1    
    24   12   13 ar   
    25   12   14 ar   
    26   12   37 1    
    27   13   17 1    
    28   13   22 ar   
    29   14   15 ar   
    30   14   24 2    
    31   15   16 1    
    32   15   21 ar   
    33   16   23 am   BACKBONE|DICT|INTERRES
    34   16   25 2    
    35   17   38 1    
    36   17   39 1    
    37   17   40 1    
    38   18   26 1    
    39   18   41 1    
    40   18   42 1    
    41   18   43 1    
    42   19   27 1    
    43   19   28 1    
    44   19   29 1    
    45   21   22 ar   
    46   23   44 1    
@<TRIPOS>SUBSTRUCTURE
     1 UNK         1 GROUP             0       ****    0 ROOT    
@<TRIPOS>MOLECULE
ZINC48355361_119
51   53    1
SMALL
USER_CHARGES


@<TRIPOS>ATOM
      1 C1         -8.7912   -6.8864   38.6911 C.ar      1 UNK        -0.1150 
      2 C2         -5.0798  -11.2117   37.2717 C.ar      1 UNK        -0.1150 
      3 C3         -6.7857   -9.7910   36.2618 C.ar      1 UNK        -0.1150 
      4 C4         -9.3150   -6.0938   37.6544 C.ar      1 UNK        -0.1150 
      5 C5         -4.6175  -11.5676   35.9891 C.ar      1 UNK        -0.1150 
      6 C6         -6.3220  -10.1470   34.9797 C.ar      1 UNK        -0.1150 
      7 C7         -7.7632   -4.9076   39.6729 C.ar      1 UNK        -0.1150 
      8 C8         -7.9845   -6.3008   39.6908 C.ar      1 UNK        -0.1150 
      9 C9         -6.1702  -10.3260   37.4141 C.ar      1 UNK        -0.0418 
     10 C10        -9.0489   -4.7125   37.6085 C.ar      1 UNK         0.0850 
     11 C11        -8.2912   -4.0977   38.6360 C.ar      1 UNK         0.0850 
     12 C12        -5.2387  -11.0356   34.8435 C.ar      1 UNK         0.2000 
     13 C13        -7.4244   -7.1242   40.8164 C.2       1 UNK         0.6150 
     14 C14        -6.2328   -9.1726   41.5231 C.3       1 UNK        -0.0500 
     15 C15        -6.1055   -8.5435   39.2008 C.3       1 UNK        -0.0500 
     16 C16        -6.7740  -10.5478   41.0985 C.3       1 UNK         0.1400 
     17 C17        -6.6662   -9.9191   38.7921 C.3       1 UNK         0.2118 
     18 C18        -8.4127   -4.3571   34.5208 C.3       1 UNK        -0.1800 
     19 C19        -9.2629   -2.0605   35.2134 C.3       1 UNK        -0.1800 
     20 C20        -7.4309   -2.0866   39.6384 C.3       1 UNK         0.1100 
     21 C21        -8.6607   -3.3878   35.6835 C.3       1 UNK         0.1700 
     22 N22        -6.6469   -8.1919   40.5174 N.am      1 UNK        -0.1400 
     23 O23        -7.6881   -6.7979   41.9724 O.2       1 UNK        -0.5000 
     24 O24        -6.2955  -10.8681   39.7932 O.3       1 UNK        -0.4000 
     25 O25        -8.1230   -2.7293   38.5786 O.3       1 UNK        -0.2850 
     26 O26        -9.5921   -3.9868   36.5774 O.3       1 UNK        -0.2850 
     27 Br27       -4.6126  -11.5128   33.1124 Br        1 UNK        -0.2000 
     28 H28        -9.0187   -7.9414   38.7189 H         1 UNK         0.1150 
     29 H29        -4.5969  -11.6223   38.1469 H         1 UNK         0.1150 
     30 H30        -7.6149   -9.1050   36.3573 H         1 UNK         0.1150 
     31 H31        -9.9276   -6.5411   36.8855 H         1 UNK         0.1150 
     32 H32        -3.7856  -12.2480   35.8821 H         1 UNK         0.1150 
     33 H33        -6.7940   -9.7389   34.0981 H         1 UNK         0.1150 
     34 H34        -7.1840   -4.4809   40.4780 H         1 UNK         0.1150 
     35 H35        -6.5969   -8.9317   42.5235 H         1 UNK         0.0600 
     36 H36        -5.1445   -9.1941   41.5907 H         1 UNK         0.0600 
     37 H37        -5.0174   -8.5914   39.2624 H         1 UNK         0.0600 
     38 H38        -6.3151   -7.7978   38.4350 H         1 UNK         0.0600 
     39 H39        -6.4416  -11.3169   41.7962 H         1 UNK         0.0300 
     40 H40        -7.8653  -10.5574   41.1096 H         1 UNK         0.0300 
     41 H41        -7.7558   -9.8821   38.7470 H         1 UNK         0.0300 
     42 H42        -9.3424   -4.5981   34.0048 H         1 UNK         0.0600 
     43 H43        -7.7249   -3.9281   33.7921 H         1 UNK         0.0600 
     44 H44        -7.9780   -5.2910   34.8769 H         1 UNK         0.0600 
     45 H45       -10.2253   -2.2143   34.7251 H         1 UNK         0.0600 
     46 H46        -8.6026   -1.5537   34.5097 H         1 UNK         0.0600 
     47 H47        -9.4228   -1.3921   36.0600 H         1 UNK         0.0600 
     48 H48        -7.4160   -1.0119   39.4569 H         1 UNK         0.0300 
     49 H49        -6.3956   -2.4243   39.7011 H         1 UNK         0.0300 
     50 H50        -7.9257   -2.2513   40.5967 H         1 UNK         0.0300 
     51 H51        -7.7043   -3.1787   36.1648 H         1 UNK         0.0300 
@<TRIPOS>BOND
     1    1    4 ar   
     2    1    8 ar   
     3    1   28 1    
     4    2    5 ar   
     5    2    9 ar   
     6    2   29 1    
     7    3    6 ar   
     8    3    9 ar   
     9    3   30 1    
    10    4   10 ar   
    11    4   31 1    
    12    5   12 ar   
    13    5   32 1    
    14    6   12 ar   
    15    6   33 1    
    16    7    8 ar   
    17    7   11 ar   
    18    7   34 1    
    19    8   13 1    
    20    9   17 1    
    21   10   11 ar   
    22   10   26 1    
    23   11   25 1    
    24   12   27 1    
    25   13   22 am   BACKBONE|DICT|INTERRES
    26   13   23 2    
    27   14   16 1    
    28   14   22 1    
    29   14   35 1    
    30   14   36 1    
    31   15   17 1    
    32   15   22 1    
    33   15   37 1    
    34   15   38 1    
    35   16   24 1    
    36   16   39 1    
    37   16   40 1    
    38   17   24 1    
    39   17   41 1    
    40   18   21 1    
    41   18   42 1    
    42   18   43 1    
    43   18   44 1    
    44   19   21 1    
    45   19   45 1    
    46   19   46 1    
    47   19   47 1    
    48   20   25 1    
    49   20   48 1    
    50   20   49 1    
    51   20   50 1    
    52   21   26 1    
    53   21   51 1    
@<TRIPOS>SUBSTRUCTURE
     1 UNK         1 GROUP             0       ****    0 ROOT    
@<TRIPOS>MOLECULE
ZINC49059885_168
53   55    1
SMALL
USER_CHARGES


@<TRIPOS>ATOM
      1 C1         -5.4607  -12.1077   37.2042 C.ar      1 UNK        -0.1150 
      2 C2         -3.7695  -10.3340   37.2634 C.ar      1 UNK        -0.1150 
      3 C3         -4.9052  -12.5851   35.9995 C.ar      1 UNK        -0.1150 
      4 C4         -3.2238  -10.8208   36.0587 C.ar      1 UNK        -0.1150 
      5 C5         -7.3807   -4.1665   39.2072 C.ar      1 UNK        -0.1150 
      6 C6         -8.2885   -6.1300   38.1021 C.ar      1 UNK        -0.1150 
      7 C7         -4.8937  -10.9771   37.8404 C.ar      1 UNK         0.0631 
      8 C8         -7.3935   -5.5683   39.0305 C.ar      1 UNK         0.0850 
      9 C9         -8.2355   -3.3214   38.4549 C.ar      1 UNK         0.0850 
     10 C10        -9.1498   -5.3120   37.3341 C.ar      1 UNK         0.0850 
     11 C11        -9.1084   -3.9076   37.4931 C.ar      1 UNK         0.0850 
     12 C12        -3.7904  -11.9438   35.4279 C.ar      1 UNK         0.2200 
     13 C13        -6.5502  -11.1250   39.8381 C.ar      1 UNK        -0.2947 
     14 C14        -7.0443  -10.5585   40.9620 C.ar      1 UNK        -0.1717 
     15 C15        -5.4738  -10.4608   39.1145 C.ar      1 UNK         0.3933 
     16 C16        -6.5298   -9.2975   41.4851 C.ar      1 UNK         0.5567 
     17 C17        -5.5652   -6.2649   40.6247 C.2       1 UNK         0.5000 
     18 C18        -3.3673   -7.4425   40.7707 C.3       1 UNK        -0.1800 
     19 C19        -7.4384   -1.3683   39.6380 C.3       1 UNK         0.1100 
     20 C20       -10.1740   -7.2177   36.2707 C.3       1 UNK         0.1100 
     21 C21        -9.5944   -1.9053   36.2407 C.3       1 UNK         0.1100 
     22 C22        -4.8542   -7.5124   41.1996 C.3       1 UNK         0.1400 
     23 N23        -5.0010   -9.3517   39.5891 N.2       1 UNK        -0.2833 
     24 N24        -5.4854   -8.7884   40.7672 N.pl3     1 UNK        -0.1934 
     25 N25        -6.5619   -6.4774   39.7442 N.am      1 UNK        -0.3850 
     26 O26        -7.0079   -8.7278   42.4600 O.2       1 UNK        -0.5000 
     27 O27        -5.1821   -5.1514   40.9780 O.2       1 UNK        -0.5000 
     28 O28        -8.2675   -1.9523   38.6427 O.3       1 UNK        -0.2850 
     29 O29       -10.0409   -5.8111   36.4042 O.3       1 UNK        -0.2850 
     30 O30        -9.9798   -3.1946   36.6931 O.3       1 UNK        -0.2850 
     31 F31        -3.2640  -12.4069   34.2713 F         1 UNK        -0.2200 
     32 H32        -6.3190  -12.6229   37.6042 H         1 UNK         0.1150 
     33 H33        -3.3106   -9.4721   37.7264 H         1 UNK         0.1150 
     34 H34        -5.3333  -13.4457   35.5064 H         1 UNK         0.1150 
     35 H35        -2.3680  -10.3343   35.6139 H         1 UNK         0.1150 
     36 H36        -6.7163   -3.7351   39.9348 H         1 UNK         0.1150 
     37 H37        -8.3002   -7.2017   37.9838 H         1 UNK         0.1150 
     38 H38        -6.9554  -12.0663   39.5061 H         1 UNK         0.1150 
     39 H39        -7.8384  -11.0489   41.5053 H         1 UNK         0.1150 
     40 H40        -3.2490   -7.3696   39.6889 H         1 UNK         0.0600 
     41 H41        -2.8179   -8.3187   41.1148 H         1 UNK         0.0600 
     42 H42        -2.8807   -6.5679   41.2048 H         1 UNK         0.0600 
     43 H43        -7.6074   -0.2917   39.6580 H         1 UNK         0.0300 
     44 H44        -6.3811   -1.5297   39.4236 H         1 UNK         0.0300 
     45 H45        -7.6723   -1.7549   40.6310 H         1 UNK         0.0300 
     46 H46       -10.9416   -7.4355   35.5282 H         1 UNK         0.0300 
     47 H47       -10.4834   -7.6801   37.2090 H         1 UNK         0.0300 
     48 H48        -9.2455   -7.6759   35.9277 H         1 UNK         0.0300 
     49 H49       -10.1133   -1.6863   35.3080 H         1 UNK         0.0300 
     50 H50        -8.5237   -1.8395   36.0421 H         1 UNK         0.0300 
     51 H51        -9.8796   -1.1359   36.9582 H         1 UNK         0.0300 
     52 H52        -4.8831   -7.4333   42.2885 H         1 UNK         0.0600 
     53 H53        -6.7164   -7.4561   39.5596 H         1 UNK         0.3000 
@<TRIPOS>BOND
     1    1    3 ar   
     2    1    7 ar   
     3    1   32 1    
     4    2    4 ar   
     5    2    7 ar   
     6    2   33 1    
     7    3   12 ar   
     8    3   34 1    
     9    4   12 ar   
    10    4   35 1    
    11    5    8 ar   
    12    5    9 ar   
    13    5   36 1    
    14    6    8 ar   
    15    6   10 ar   
    16    6   37 1    
    17    7   15 1    
    18    8   25 1    
    19    9   11 ar   
    20    9   28 1    
    21   10   11 ar   
    22   10   29 1    
    23   11   30 1    
    24   12   31 1    
    25   13   14 ar   
    26   13   15 ar   
    27   13   38 1    
    28   14   16 ar   
    29   14   39 1    
    30   15   23 ar   
    31   16   24 ar   
    32   16   26 2    
    33   17   22 1    
    34   17   25 am   BACKBONE|DICT|INTERRES
    35   17   27 2    
    36   18   22 1    
    37   18   40 1    
    38   18   41 1    
    39   18   42 1    
    40   19   28 1    
    41   19   43 1    
    42   19   44 1    
    43   19   45 1    
    44   20   29 1    
    45   20   46 1    
    46   20   47 1    
    47   20   48 1    
    48   21   30 1    
    49   21   49 1    
    50   21   50 1    
    51   21   51 1    
    52   22   24 1    
    53   22   52 1    
    54   23   24 ar   
    55   25   53 1    
@<TRIPOS>SUBSTRUCTURE
     1 UNK         1 GROUP             0       ****    0 ROOT    
@<TRIPOS>MOLECULE
ZINC49060183_159
56   58    1
SMALL
USER_CHARGES


@<TRIPOS>ATOM
      1 C1         -6.1621  -12.8702   36.8912 C.ar      1 UNK        -0.1150 
      2 C2         -4.4940  -11.0893   37.1111 C.ar      1 UNK        -0.1150 
      3 C3         -5.5775  -13.2566   35.6691 C.ar      1 UNK        -0.1150 
      4 C4         -3.9167  -11.4836   35.8884 C.ar      1 UNK        -0.1150 
      5 C5         -8.0247   -5.1266   39.0011 C.ar      1 UNK        -0.1150 
      6 C6         -9.1679   -7.0701   38.0962 C.ar      1 UNK        -0.1150 
      7 C7         -5.6220  -11.7820   37.6165 C.ar      1 UNK         0.0631 
      8 C8         -4.4571  -12.5662   35.1649 C.ar      1 UNK        -0.1150 
      9 C9         -8.1704   -6.5297   38.9276 C.ar      1 UNK         0.0850 
     10 C10        -8.8673   -4.2589   38.2609 C.ar      1 UNK         0.0850 
     11 C11       -10.0169   -6.2297   37.3388 C.ar      1 UNK         0.0850 
     12 C12        -9.8559   -4.8263   37.4049 C.ar      1 UNK         0.0850 
     13 C13        -7.3073  -12.0969   39.5683 C.ar      1 UNK        -0.2947 
     14 C14        -7.8426  -11.6111   40.7109 C.ar      1 UNK        -0.1717 
     15 C15        -6.2356  -11.3616   38.9092 C.ar      1 UNK         0.3933 
     16 C16        -7.3773  -10.3688   41.3178 C.ar      1 UNK         0.5567 
     17 C17        -6.4830   -7.2721   40.6443 C.2       1 UNK         0.5000 
     18 C18        -3.8421  -12.9912   33.8472 C.3       1 UNK        -0.0650 
     19 C19        -4.2566   -8.3837   40.7978 C.3       1 UNK        -0.1800 
     20 C20        -7.8707   -2.3167   39.3010 C.3       1 UNK         0.1100 
     21 C21       -11.2537   -8.1043   36.4628 C.3       1 UNK         0.1100 
     22 C22       -10.2939   -2.8575   36.0798 C.3       1 UNK         0.1100 
     23 C23        -5.7508   -8.5241   41.1781 C.3       1 UNK         0.1400 
     24 N24        -5.8022  -10.2717   39.4612 N.2       1 UNK        -0.2833 
     25 N25        -6.3295   -9.7919   40.6582 N.pl3     1 UNK        -0.1934 
     26 N26        -7.3495   -7.4560   39.6303 N.am      1 UNK        -0.3850 
     27 O27        -7.8940   -9.8719   42.3128 O.2       1 UNK        -0.5000 
     28 O28        -6.2398   -6.1807   41.1556 O.2       1 UNK        -0.5000 
     29 O29        -8.7716   -2.8835   38.3594 O.3       1 UNK        -0.2850 
     30 O30       -11.0104   -6.7068   36.5060 O.3       1 UNK        -0.2850 
     31 O31       -10.7292   -4.0938   36.6242 O.3       1 UNK        -0.2850 
     32 H32        -7.0238  -13.4190   37.2351 H         1 UNK         0.1150 
     33 H33        -4.0560  -10.2578   37.6445 H         1 UNK         0.1150 
     34 H34        -5.9949  -14.0865   35.1165 H         1 UNK         0.1150 
     35 H35        -3.0567  -10.9491   35.5105 H         1 UNK         0.1150 
     36 H36        -7.2569   -4.7126   39.6311 H         1 UNK         0.1150 
     37 H37        -9.2716   -8.1425   38.0490 H         1 UNK         0.1150 
     38 H38        -7.6750  -13.0293   39.1732 H         1 UNK         0.1150 
     39 H39        -8.6326  -12.1556   41.2063 H         1 UNK         0.1150 
     40 H40        -4.5527  -12.8454   33.0332 H         1 UNK         0.0600 
     41 H41        -2.9438  -12.4161   33.6206 H         1 UNK         0.0600 
     42 H42        -3.5685  -14.0462   33.8794 H         1 UNK         0.0600 
     43 H43        -4.1084   -8.2615   39.7242 H         1 UNK         0.0600 
     44 H44        -3.6866   -9.2540   41.1226 H         1 UNK         0.0600 
     45 H45        -3.8161   -7.5114   41.2829 H         1 UNK         0.0600 
     46 H46        -7.9719   -1.2317   39.2850 H         1 UNK         0.0300 
     47 H47        -6.8345   -2.5523   39.0548 H         1 UNK         0.0300 
     48 H48        -8.0888   -2.6511   40.3162 H         1 UNK         0.0300 
     49 H49       -12.0911   -8.3005   35.7932 H         1 UNK         0.0300 
     50 H50       -11.5204   -8.4943   37.4460 H         1 UNK         0.0300 
     51 H51       -10.3899   -8.6472   36.0772 H         1 UNK         0.0300 
     52 H52       -10.8745   -2.6393   35.1840 H         1 UNK         0.0300 
     53 H53        -9.2422   -2.8812   35.7903 H         1 UNK         0.0300 
     54 H54       -10.4610   -2.0387   36.7797 H         1 UNK         0.0300 
     55 H55        -5.8137   -8.5035   42.2683 H         1 UNK         0.0600 
     56 H56        -7.4351   -8.4234   39.3586 H         1 UNK         0.3000 
@<TRIPOS>BOND
     1    1    3 ar   
     2    1    7 ar   
     3    1   32 1    
     4    2    4 ar   
     5    2    7 ar   
     6    2   33 1    
     7    3    8 ar   
     8    3   34 1    
     9    4    8 ar   
    10    4   35 1    
    11    5    9 ar   
    12    5   10 ar   
    13    5   36 1    
    14    6    9 ar   
    15    6   11 ar   
    16    6   37 1    
    17    7   15 1    
    18    8   18 1    
    19    9   26 1    
    20   10   12 ar   
    21   10   29 1    
    22   11   12 ar   
    23   11   30 1    
    24   12   31 1    
    25   13   14 ar   
    26   13   15 ar   
    27   13   38 1    
    28   14   16 ar   
    29   14   39 1    
    30   15   24 ar   
    31   16   25 ar   
    32   16   27 2    
    33   17   23 1    
    34   17   26 am   BACKBONE|DICT|INTERRES
    35   17   28 2    
    36   18   40 1    
    37   18   41 1    
    38   18   42 1    
    39   19   23 1    
    40   19   43 1    
    41   19   44 1    
    42   19   45 1    
    43   20   29 1    
    44   20   46 1    
    45   20   47 1    
    46   20   48 1    
    47   21   30 1    
    48   21   49 1    
    49   21   50 1    
    50   21   51 1    
    51   22   31 1    
    52   22   52 1    
    53   22   53 1    
    54   22   54 1    
    55   23   25 1    
    56   23   55 1    
    57   24   25 ar   
    58   26   56 1    
@<TRIPOS>SUBSTRUCTURE
     1 UNK         1 GROUP             0       ****    0 ROOT    
@<TRIPOS>MOLECULE
ZINC49378431_164
47   49    1
SMALL
USER_CHARGES


@<TRIPOS>ATOM
      1 C1         -3.8847  -12.2217   35.4429 C.ar      1 UNK        -0.1150 
      2 C2         -3.6768  -10.8597   35.7214 C.ar      1 UNK        -0.1150 
      3 C3         -4.6384  -13.0064   36.3330 C.ar      1 UNK        -0.1150 
      4 C4         -4.2174  -10.2841   36.8872 C.ar      1 UNK        -0.1150 
      5 C5         -5.1796  -12.4313   37.4992 C.ar      1 UNK        -0.1150 
      6 C6         -8.7331   -6.1827   37.9091 C.ar      1 UNK        -0.1150 
      7 C7         -9.3565   -5.2341   37.0830 C.ar      1 UNK        -0.1150 
      8 C8         -7.5457   -4.3877   39.0358 C.ar      1 UNK        -0.1150 
      9 C9         -4.9731  -11.0618   37.8029 C.ar      1 UNK         0.0850 
     10 C10        -7.8320   -5.7661   38.9041 C.ar      1 UNK         0.0850 
     11 C11        -9.1007   -3.8559   37.2201 C.ar      1 UNK         0.0850 
     12 C12        -8.1699   -3.4148   38.2094 C.ar      1 UNK         0.0850 
     13 C13        -5.2140   -9.3559   39.6159 C.2       1 UNK         0.8613 
     14 C14        -6.6346   -6.6871   40.9023 C.2       1 UNK         0.5000 
     15 C15        -6.6212  -11.1915   39.7206 C.3       1 UNK        -0.0703 
     16 C16        -7.0182  -10.2132   40.8194 C.3       1 UNK        -0.0703 
     17 C17        -9.8258   -1.6538   36.4849 C.3       1 UNK         0.1100 
     18 C18        -7.0097   -1.6320   39.3618 C.3       1 UNK         0.1100 
     19 C19        -6.0522   -7.9715   41.5110 C.3       1 UNK         0.0025 
     20 N20        -5.5539  -10.5058   38.9940 N.am      1 UNK        -0.2572 
     21 N21        -6.0720   -9.1369   40.6215 N.am      1 UNK        -0.2947 
     22 N22        -7.2241   -6.7787   39.6951 N.am      1 UNK        -0.3850 
     23 O23        -4.3088   -8.5832   39.3176 O.2       1 UNK        -0.6163 
     24 O24        -6.5690   -5.6510   41.5581 O.2       1 UNK        -0.5000 
     25 O25        -9.8048   -3.0641   36.3330 O.3       1 UNK        -0.2850 
     26 O26        -7.8837   -2.0683   38.3297 O.3       1 UNK        -0.2850 
     27 H27        -3.4685  -12.6620   34.5479 H         1 UNK         0.1150 
     28 H28        -3.1022  -10.2501   35.0391 H         1 UNK         0.1150 
     29 H29        -4.8018  -14.0532   36.1217 H         1 UNK         0.1150 
     30 H30        -4.0400   -9.2311   37.0460 H         1 UNK         0.1150 
     31 H31        -5.7494  -13.0706   38.1557 H         1 UNK         0.1150 
     32 H32        -8.9623   -7.2291   37.7719 H         1 UNK         0.1150 
     33 H33       -10.0531   -5.5650   36.3270 H         1 UNK         0.1150 
     34 H34        -6.8228   -4.0831   39.7736 H         1 UNK         0.1150 
     35 H35        -6.2535  -12.1227   40.1547 H         1 UNK         0.0600 
     36 H36        -7.4612  -11.4188   39.0620 H         1 UNK         0.0600 
     37 H37        -8.0424   -9.8574   40.6975 H         1 UNK         0.0600 
     38 H38        -6.9128  -10.6537   41.8124 H         1 UNK         0.0600 
     39 H39       -10.5558   -1.2340   35.7932 H         1 UNK         0.0300 
     40 H40        -8.8594   -1.2119   36.2405 H         1 UNK         0.0300 
     41 H41       -10.1268   -1.3595   37.4911 H         1 UNK         0.0300 
     42 H42        -6.9437   -0.5445   39.3382 H         1 UNK         0.0300 
     43 H43        -6.0013   -2.0244   39.2236 H         1 UNK         0.0300 
     44 H44        -7.3795   -1.9162   40.3481 H         1 UNK         0.0300 
     45 H45        -6.6017   -8.1947   42.4257 H         1 UNK         0.0600 
     46 H46        -5.0238   -7.7670   41.8142 H         1 UNK         0.0600 
     47 H47        -7.2698   -7.7116   39.3215 H         1 UNK         0.3000 
@<TRIPOS>BOND
     1    1    2 ar   
     2    1    3 ar   
     3    1   27 1    
     4    2    4 ar   
     5    2   28 1    
     6    3    5 ar   
     7    3   29 1    
     8    4    9 ar   
     9    4   30 1    
    10    5    9 ar   
    11    5   31 1    
    12    6    7 ar   
    13    6   10 ar   
    14    6   32 1    
    15    7   11 ar   
    16    7   33 1    
    17    8   10 ar   
    18    8   12 ar   
    19    8   34 1    
    20    9   20 1    
    21   10   22 1    
    22   11   12 ar   
    23   11   25 1    
    24   12   26 1    
    25   13   20 am   BACKBONE|DICT|INTERRES
    26   13   21 am   BACKBONE|DICT|INTERRES
    27   13   23 2    
    28   14   19 1    
    29   14   22 am   BACKBONE|DICT|INTERRES
    30   14   24 2    
    31   15   16 1    
    32   15   20 1    
    33   15   35 1    
    34   15   36 1    
    35   16   21 1    
    36   16   37 1    
    37   16   38 1    
    38   17   25 1    
    39   17   39 1    
    40   17   40 1    
    41   17   41 1    
    42   18   26 1    
    43   18   42 1    
    44   18   43 1    
    45   18   44 1    
    46   19   21 1    
    47   19   45 1    
    48   19   46 1    
    49   22   47 1    
@<TRIPOS>SUBSTRUCTURE
     1 UNK         1 GROUP             0       ****    0 ROOT    
@<TRIPOS>MOLECULE
ZINC49378634_134
51   53    1
SMALL
USER_CHARGES


@<TRIPOS>ATOM
      1 C1         -3.8449  -12.0815   35.4114 C.ar      1 UNK        -0.1150 
      2 C2         -3.6870  -10.7114   35.6833 C.ar      1 UNK        -0.1150 
      3 C3         -4.5026  -12.9040   36.3423 C.ar      1 UNK        -0.1150 
      4 C4         -4.1805  -10.1655   36.8839 C.ar      1 UNK        -0.1150 
      5 C5         -4.9968  -12.3586   37.5430 C.ar      1 UNK        -0.1150 
      6 C6         -8.6806   -6.2467   38.1485 C.ar      1 UNK        -0.1150 
      7 C7         -7.6156   -4.4115   39.3446 C.ar      1 UNK        -0.1150 
      8 C8         -4.8380  -10.9817   37.8412 C.ar      1 UNK         0.0850 
      9 C9         -7.8021   -5.8002   39.1557 C.ar      1 UNK         0.0850 
     10 C10        -9.3860   -5.3249   37.3384 C.ar      1 UNK         0.0850 
     11 C11        -8.3138   -3.4699   38.5493 C.ar      1 UNK         0.0850 
     12 C12        -9.1896   -3.9411   37.5416 C.ar      1 UNK         0.0850 
     13 C13        -5.0416   -9.2971   39.6785 C.2       1 UNK         0.8613 
     14 C14        -6.4924   -6.7049   41.0954 C.2       1 UNK         0.5000 
     15 C15        -6.3519  -11.1969   39.8592 C.3       1 UNK        -0.0703 
     16 C16        -6.7267  -10.2411   40.9849 C.3       1 UNK        -0.0703 
     17 C17       -10.5137   -7.0773   36.1318 C.3       1 UNK         0.1100 
     18 C18        -7.3611   -1.6097   39.7460 C.3       1 UNK         0.1100 
     19 C19        -9.0897   -2.3724   35.8046 C.3       1 UNK         0.1100 
     20 C20        -5.8117   -7.9684   41.6429 C.3       1 UNK         0.0025 
     21 N21        -5.3681  -10.4579   39.0699 N.am      1 UNK        -0.2572 
     22 N22        -5.8403   -9.1242   40.7404 N.am      1 UNK        -0.2947 
     23 N23        -7.1170   -6.7965   39.9060 N.am      1 UNK        -0.3850 
     24 O24        -4.1989   -8.4783   39.3255 O.2       1 UNK        -0.6163 
     25 O25        -6.4685   -5.6880   41.7826 O.2       1 UNK        -0.5000 
     26 O26       -10.2586   -5.6961   36.3349 O.3       1 UNK        -0.2850 
     27 O27        -8.1944   -2.1032   38.7072 O.3       1 UNK        -0.2850 
     28 O28        -9.8894   -3.0640   36.7509 O.3       1 UNK        -0.2850 
     29 H29        -3.4639  -12.4992   34.4903 H         1 UNK         0.1150 
     30 H30        -3.1868  -10.0730   34.9693 H         1 UNK         0.1150 
     31 H31        -4.6280  -13.9570   36.1357 H         1 UNK         0.1150 
     32 H32        -4.0445   -9.1056   37.0367 H         1 UNK         0.1150 
     33 H33        -5.4927  -13.0265   38.2303 H         1 UNK         0.1150 
     34 H34        -8.8067   -7.3082   38.0078 H         1 UNK         0.1150 
     35 H35        -6.9275   -4.0698   40.0995 H         1 UNK         0.1150 
     36 H36        -5.9101  -12.1082   40.2653 H         1 UNK         0.0600 
     37 H37        -7.2198  -11.4663   39.2551 H         1 UNK         0.0600 
     38 H38        -7.7702   -9.9283   40.9215 H         1 UNK         0.0600 
     39 H39        -6.5483  -10.6807   41.9678 H         1 UNK         0.0600 
     40 H40       -11.2332   -7.1934   35.3214 H         1 UNK         0.0300 
     41 H41       -10.9439   -7.5382   37.0222 H         1 UNK         0.0300 
     42 H42        -9.6078   -7.6134   35.8461 H         1 UNK         0.0300 
     43 H43        -7.4004   -0.5205   39.7512 H         1 UNK         0.0300 
     44 H44        -6.3207   -1.9004   39.5944 H         1 UNK         0.0300 
     45 H45        -7.6953   -1.9555   40.7253 H         1 UNK         0.0300 
     46 H46        -9.7361   -1.8592   35.0930 H         1 UNK         0.0300 
     47 H47        -8.4573   -3.0607   35.2419 H         1 UNK         0.0300 
     48 H48        -8.4557   -1.6210   36.2743 H         1 UNK         0.0300 
     49 H49        -6.2827   -8.2277   42.5912 H         1 UNK         0.0600 
     50 H50        -4.7749   -7.7190   41.8761 H         1 UNK         0.0600 
     51 H51        -7.1114   -7.7196   39.5063 H         1 UNK         0.3000 
@<TRIPOS>BOND
     1    1    2 ar   
     2    1    3 ar   
     3    1   29 1    
     4    2    4 ar   
     5    2   30 1    
     6    3    5 ar   
     7    3   31 1    
     8    4    8 ar   
     9    4   32 1    
    10    5    8 ar   
    11    5   33 1    
    12    6    9 ar   
    13    6   10 ar   
    14    6   34 1    
    15    7    9 ar   
    16    7   11 ar   
    17    7   35 1    
    18    8   21 1    
    19    9   23 1    
    20   10   12 ar   
    21   10   26 1    
    22   11   12 ar   
    23   11   27 1    
    24   12   28 1    
    25   13   21 am   BACKBONE|DICT|INTERRES
    26   13   22 am   BACKBONE|DICT|INTERRES
    27   13   24 2    
    28   14   20 1    
    29   14   23 am   BACKBONE|DICT|INTERRES
    30   14   25 2    
    31   15   16 1    
    32   15   21 1    
    33   15   36 1    
    34   15   37 1    
    35   16   22 1    
    36   16   38 1    
    37   16   39 1    
    38   17   26 1    
    39   17   40 1    
    40   17   41 1    
    41   17   42 1    
    42   18   27 1    
    43   18   43 1    
    44   18   44 1    
    45   18   45 1    
    46   19   28 1    
    47   19   46 1    
    48   19   47 1    
    49   19   48 1    
    50   20   22 1    
    51   20   49 1    
    52   20   50 1    
    53   23   51 1    
@<TRIPOS>SUBSTRUCTURE
     1 UNK         1 GROUP             0       ****    0 ROOT    
@<TRIPOS>MOLECULE
ZINC49379490_161
50   52    1
SMALL
USER_CHARGES


@<TRIPOS>ATOM
      1 C1         -3.7020  -10.7816   35.6488 C.ar      1 UNK        -0.1150 
      2 C2         -4.6727  -12.9304   36.2375 C.ar      1 UNK        -0.1150 
      3 C3         -4.2334  -10.2182   36.8245 C.ar      1 UNK        -0.1150 
      4 C4         -5.2033  -12.3668   37.4137 C.ar      1 UNK        -0.1150 
      5 C5         -8.7352   -6.1338   37.9119 C.ar      1 UNK        -0.1150 
      6 C6         -9.3642   -5.1776   37.0990 C.ar      1 UNK        -0.1150 
      7 C7         -7.5781   -4.3461   39.0809 C.ar      1 UNK        -0.1150 
      8 C8         -3.9169  -12.1400   35.3518 C.ar      1 UNK        -0.1150 
      9 C9         -4.9881  -11.0030   37.7345 C.ar      1 UNK         0.0850 
     10 C10        -7.8465   -5.7252   38.9211 C.ar      1 UNK         0.0850 
     11 C11        -9.1257   -3.7993   37.2633 C.ar      1 UNK         0.0850 
     12 C12        -8.2059   -3.3657   38.2662 C.ar      1 UNK         0.0850 
     13 C13        -5.2170   -9.3156   39.5671 C.2       1 UNK         0.8613 
     14 C14        -6.6420   -6.6693   40.9046 C.2       1 UNK         0.5000 
     15 C15        -6.6196  -11.1550   39.6644 C.3       1 UNK        -0.0703 
     16 C16        -7.0095  -10.1894   40.7765 C.3       1 UNK        -0.0703 
     17 C17        -3.3437  -12.7394   34.0844 C.3       1 UNK        -0.0650 
     18 C18        -9.8858   -1.5944   36.5767 C.3       1 UNK         0.1100 
     19 C19        -7.0343   -1.5944   39.4251 C.3       1 UNK         0.1100 
     20 C20        -6.0390   -7.9560   41.4876 C.3       1 UNK         0.0025 
     21 N21        -5.5596  -10.4597   38.9361 N.am      1 UNK        -0.2572 
     22 N22        -6.0647   -9.1108   40.5844 N.am      1 UNK        -0.2947 
     23 N23        -7.2301   -6.7452   39.6958 N.am      1 UNK        -0.3850 
     24 O24        -4.3182   -8.5355   39.2683 O.2       1 UNK        -0.6163 
     25 O25        -6.5940   -5.6463   41.5821 O.2       1 UNK        -0.5000 
     26 O26        -9.8310   -2.9988   36.3849 O.3       1 UNK        -0.2850 
     27 O27        -7.9334   -2.0186   38.4096 O.3       1 UNK        -0.2850 
     28 H28        -3.1292  -10.1607   34.9750 H         1 UNK         0.1150 
     29 H29        -4.8499  -13.9738   36.0205 H         1 UNK         0.1150 
     30 H30        -4.0494   -9.1684   36.9945 H         1 UNK         0.1150 
     31 H31        -5.7734  -13.0119   38.0639 H         1 UNK         0.1150 
     32 H32        -8.9502   -7.1802   37.7530 H         1 UNK         0.1150 
     33 H33       -10.0510   -5.5028   36.3317 H         1 UNK         0.1150 
     34 H34        -6.8661   -4.0467   39.8309 H         1 UNK         0.1150 
     35 H35        -6.2457  -12.0897   40.0857 H         1 UNK         0.0600 
     36 H36        -7.4645  -11.3775   39.0106 H         1 UNK         0.0600 
     37 H37        -8.0345   -9.8321   40.6648 H         1 UNK         0.0600 
     38 H38        -6.8978  -10.6407   41.7639 H         1 UNK         0.0600 
     39 H39        -2.3262  -12.3841   33.9182 H         1 UNK         0.0600 
     40 H40        -3.3145  -13.8279   34.1396 H         1 UNK         0.0600 
     41 H41        -3.9516  -12.4558   33.2250 H         1 UNK         0.0600 
     42 H42       -10.6196   -1.1714   35.8911 H         1 UNK         0.0300 
     43 H43        -8.9277   -1.1245   36.3525 H         1 UNK         0.0300 
     44 H44       -10.2004   -1.3363   37.5886 H         1 UNK         0.0300 
     45 H45        -6.9603   -0.5072   39.4057 H         1 UNK         0.0300 
     46 H46        -6.0321   -1.9936   39.2639 H         1 UNK         0.0300 
     47 H47        -7.3856   -1.8812   40.4174 H         1 UNK         0.0300 
     48 H48        -6.5702   -8.1947   42.4090 H         1 UNK         0.0600 
     49 H49        -5.0072   -7.7462   41.7757 H         1 UNK         0.0600 
     50 H50        -7.2613   -7.6710   39.3032 H         1 UNK         0.3000 
@<TRIPOS>BOND
     1    1    3 ar   
     2    1    8 ar   
     3    1   28 1    
     4    2    4 ar   
     5    2    8 ar   
     6    2   29 1    
     7    3    9 ar   
     8    3   30 1    
     9    4    9 ar   
    10    4   31 1    
    11    5    6 ar   
    12    5   10 ar   
    13    5   32 1    
    14    6   11 ar   
    15    6   33 1    
    16    7   10 ar   
    17    7   12 ar   
    18    7   34 1    
    19    8   17 1    
    20    9   21 1    
    21   10   23 1    
    22   11   12 ar   
    23   11   26 1    
    24   12   27 1    
    25   13   21 am   BACKBONE|DICT|INTERRES
    26   13   22 am   BACKBONE|DICT|INTERRES
    27   13   24 2    
    28   14   20 1    
    29   14   23 am   BACKBONE|DICT|INTERRES
    30   14   25 2    
    31   15   16 1    
    32   15   21 1    
    33   15   35 1    
    34   15   36 1    
    35   16   22 1    
    36   16   37 1    
    37   16   38 1    
    38   17   39 1    
    39   17   40 1    
    40   17   41 1    
    41   18   26 1    
    42   18   42 1    
    43   18   43 1    
    44   18   44 1    
    45   19   27 1    
    46   19   45 1    
    47   19   46 1    
    48   19   47 1    
    49   20   22 1    
    50   20   48 1    
    51   20   49 1    
    52   23   50 1    
@<TRIPOS>SUBSTRUCTURE
     1 UNK         1 GROUP             0       ****    0 ROOT    
@<TRIPOS>MOLECULE
ZINC49379695_139
54   56    1
SMALL
USER_CHARGES


@<TRIPOS>ATOM
      1 C1         -3.7200  -10.5989   35.6588 C.ar      1 UNK        -0.1150 
      2 C2         -4.5249  -12.8073   36.2779 C.ar      1 UNK        -0.1150 
      3 C3         -4.2016  -10.0811   36.8762 C.ar      1 UNK        -0.1150 
      4 C4         -5.0061  -12.2891   37.4957 C.ar      1 UNK        -0.1150 
      5 C5         -8.6827   -6.2471   38.1666 C.ar      1 UNK        -0.1150 
      6 C6         -7.6248   -4.4073   39.3619 C.ar      1 UNK        -0.1150 
      7 C7         -3.8773  -11.9638   35.3555 C.ar      1 UNK        -0.1150 
      8 C8         -4.8473  -10.9189   37.8219 C.ar      1 UNK         0.0850 
      9 C9         -7.8092   -5.7968   39.1764 C.ar      1 UNK         0.0850 
     10 C10        -9.3847   -5.3286   37.3498 C.ar      1 UNK         0.0850 
     11 C11        -8.3199   -3.4690   38.5598 C.ar      1 UNK         0.0850 
     12 C12        -9.1902   -3.9443   37.5488 C.ar      1 UNK         0.0850 
     13 C13        -5.0385   -9.2727   39.6944 C.2       1 UNK         0.8613 
     14 C14        -6.4944   -6.6975   41.1165 C.2       1 UNK         0.5000 
     15 C15        -6.3451  -11.1774   39.8472 C.3       1 UNK        -0.0703 
     16 C16        -6.7210  -10.2390   40.9875 C.3       1 UNK        -0.0703 
     17 C17        -3.3536  -12.5119   34.0440 C.3       1 UNK        -0.0650 
     18 C18       -10.4903   -7.0877   36.1328 C.3       1 UNK         0.1100 
     19 C19        -7.3817   -1.6034   39.7606 C.3       1 UNK         0.1100 
     20 C20        -9.0804   -2.3708   35.8160 C.3       1 UNK         0.1100 
     21 C21        -5.8226   -7.9648   41.6668 C.3       1 UNK         0.0025 
     22 N22        -5.3665  -10.4225   39.0665 N.am      1 UNK        -0.2572 
     23 N23        -5.8399   -9.1149   40.7566 N.am      1 UNK        -0.2947 
     24 N24        -7.1290   -6.7922   39.9326 N.am      1 UNK        -0.3850 
     25 O25        -4.1944   -8.4492   39.3559 O.2       1 UNK        -0.6163 
     26 O26        -6.4536   -5.6758   41.7957 O.2       1 UNK        -0.5000 
     27 O27       -10.2530   -5.7046   36.3444 O.3       1 UNK        -0.2850 
     28 O28        -8.2026   -2.1016   38.7141 O.3       1 UNK        -0.2850 
     29 O29        -9.8866   -3.0716   36.7500 O.3       1 UNK        -0.2850 
     30 H30        -3.2295   -9.9385   34.9579 H         1 UNK         0.1150 
     31 H31        -4.6553  -13.8572   36.0581 H         1 UNK         0.1150 
     32 H32        -4.0656   -9.0247   37.0513 H         1 UNK         0.1150 
     33 H33        -5.4918  -12.9732   38.1740 H         1 UNK         0.1150 
     34 H34        -8.8077   -7.3093   38.0296 H         1 UNK         0.1150 
     35 H35        -6.9410   -4.0617   40.1190 H         1 UNK         0.1150 
     36 H36        -5.8977  -12.0928   40.2382 H         1 UNK         0.0600 
     37 H37        -7.2135  -11.4421   39.2415 H         1 UNK         0.0600 
     38 H38        -7.7662   -9.9302   40.9324 H         1 UNK         0.0600 
     39 H39        -6.5369  -10.6907   41.9638 H         1 UNK         0.0600 
     40 H40        -2.3093  -12.2306   33.9054 H         1 UNK         0.0600 
     41 H41        -3.4172  -13.5998   34.0116 H         1 UNK         0.0600 
     42 H42        -3.9303  -12.1110   33.2102 H         1 UNK         0.0600 
     43 H43       -11.2120   -7.2076   35.3251 H         1 UNK         0.0300 
     44 H44       -10.9095   -7.5615   37.0215 H         1 UNK         0.0300 
     45 H45        -9.5779   -7.6081   35.8388 H         1 UNK         0.0300 
     46 H46        -7.4205   -0.5142   39.7592 H         1 UNK         0.0300 
     47 H47        -6.3396   -1.8946   39.6233 H         1 UNK         0.0300 
     48 H48        -7.7283   -1.9439   40.7375 H         1 UNK         0.0300 
     49 H49        -9.7209   -1.8828   35.0817 H         1 UNK         0.0300 
     50 H50        -8.4155   -3.0486   35.2781 H         1 UNK         0.0300 
     51 H51        -8.4794   -1.5973   36.2937 H         1 UNK         0.0300 
     52 H52        -6.3090   -8.2283   42.6063 H         1 UNK         0.0600 
     53 H53        -4.7889   -7.7190   41.9168 H         1 UNK         0.0600 
     54 H54        -7.1353   -7.7187   39.5412 H         1 UNK         0.3000 
@<TRIPOS>BOND
     1    1    3 ar   
     2    1    7 ar   
     3    1   30 1    
     4    2    4 ar   
     5    2    7 ar   
     6    2   31 1    
     7    3    8 ar   
     8    3   32 1    
     9    4    8 ar   
    10    4   33 1    
    11    5    9 ar   
    12    5   10 ar   
    13    5   34 1    
    14    6    9 ar   
    15    6   11 ar   
    16    6   35 1    
    17    7   17 1    
    18    8   22 1    
    19    9   24 1    
    20   10   12 ar   
    21   10   27 1    
    22   11   12 ar   
    23   11   28 1    
    24   12   29 1    
    25   13   22 am   BACKBONE|DICT|INTERRES
    26   13   23 am   BACKBONE|DICT|INTERRES
    27   13   25 2    
    28   14   21 1    
    29   14   24 am   BACKBONE|DICT|INTERRES
    30   14   26 2    
    31   15   16 1    
    32   15   22 1    
    33   15   36 1    
    34   15   37 1    
    35   16   23 1    
    36   16   38 1    
    37   16   39 1    
    38   17   40 1    
    39   17   41 1    
    40   17   42 1    
    41   18   27 1    
    42   18   43 1    
    43   18   44 1    
    44   18   45 1    
    45   19   28 1    
    46   19   46 1    
    47   19   47 1    
    48   19   48 1    
    49   20   29 1    
    50   20   49 1    
    51   20   50 1    
    52   20   51 1    
    53   21   23 1    
    54   21   52 1    
    55   21   53 1    
    56   24   54 1    
@<TRIPOS>SUBSTRUCTURE
     1 UNK         1 GROUP             0       ****    0 ROOT    
@<TRIPOS>MOLECULE
ZINC49380713_139
51   53    1
SMALL
USER_CHARGES


@<TRIPOS>ATOM
      1 C1         -4.1589  -10.1750   36.8839 C.ar      1 UNK        -0.1150 
      2 C2         -4.9829  -12.3669   37.5421 C.ar      1 UNK        -0.1150 
      3 C3         -3.6503  -10.7260   35.6916 C.ar      1 UNK        -0.1150 
      4 C4         -4.4734  -12.9156   36.3489 C.ar      1 UNK        -0.1150 
      5 C5         -8.7106   -6.2383   38.1650 C.ar      1 UNK        -0.1150 
      6 C6         -7.6115   -4.4081   39.3375 C.ar      1 UNK        -0.1150 
      7 C7         -4.8282  -10.9881   37.8361 C.ar      1 UNK         0.0850 
      8 C8         -7.8154   -5.7958   39.1590 C.ar      1 UNK         0.0850 
      9 C9         -9.4140   -5.3133   37.3568 C.ar      1 UNK         0.0850 
     10 C10        -8.3082   -3.4635   38.5444 C.ar      1 UNK         0.0850 
     11 C11        -9.1994   -3.9309   37.5480 C.ar      1 UNK         0.0850 
     12 C12        -3.8054  -12.0962   35.4237 C.ar      1 UNK         0.2200 
     13 C13        -5.0472   -9.3000   39.6678 C.2       1 UNK         0.8613 
     14 C14        -6.4892   -6.7041   41.0860 C.2       1 UNK         0.5000 
     15 C15        -6.3669  -11.1946   39.8365 C.3       1 UNK        -0.0703 
     16 C16        -6.7452  -10.2381   40.9613 C.3       1 UNK        -0.0703 
     17 C17       -10.5728   -7.0593   36.1711 C.3       1 UNK         0.1100 
     18 C18        -7.3286   -1.6077   39.7267 C.3       1 UNK         0.1100 
     19 C19        -9.1012   -2.3521   35.8171 C.3       1 UNK         0.1100 
     20 C20        -5.8190   -7.9734   41.6322 C.3       1 UNK         0.0025 
     21 N21        -5.3729  -10.4595   39.0561 N.am      1 UNK        -0.2572 
     22 N22        -5.8512   -9.1255   40.7253 N.am      1 UNK        -0.2947 
     23 N23        -7.1330   -6.7959   39.9069 N.am      1 UNK        -0.3850 
     24 O24        -4.1971   -8.4868   39.3201 O.2       1 UNK        -0.6163 
     25 O25        -6.4398   -5.6826   41.7648 O.2       1 UNK        -0.5000 
     26 O26       -10.3024   -5.6801   36.3660 O.3       1 UNK        -0.2850 
     27 O27        -8.1731   -2.0975   38.6952 O.3       1 UNK        -0.2850 
     28 O28        -9.8994   -3.0533   36.7575 O.3       1 UNK        -0.2850 
     29 F29        -3.3185  -12.6241   34.2774 F         1 UNK        -0.2200 
     30 H30        -4.0249   -9.1144   37.0333 H         1 UNK         0.1150 
     31 H31        -5.4870  -13.0338   38.2241 H         1 UNK         0.1150 
     32 H32        -3.1411  -10.0960   34.9774 H         1 UNK         0.1150 
     33 H33        -4.5928  -13.9683   36.1392 H         1 UNK         0.1150 
     34 H34        -8.8519   -7.2990   38.0333 H         1 UNK         0.1150 
     35 H35        -6.9118   -4.0686   40.0828 H         1 UNK         0.1150 
     36 H36        -5.9333  -12.1086   40.2457 H         1 UNK         0.0600 
     37 H37        -7.2315  -11.4592   39.2254 H         1 UNK         0.0600 
     38 H38        -7.7865   -9.9197   40.8921 H         1 UNK         0.0600 
     39 H39        -6.5759  -10.6791   41.9451 H         1 UNK         0.0600 
     40 H40       -11.3054   -7.1709   35.3718 H         1 UNK         0.0300 
     41 H41       -10.9937   -7.5135   37.0691 H         1 UNK         0.0300 
     42 H42        -9.6758   -7.6038   35.8736 H         1 UNK         0.0300 
     43 H43        -7.3592   -0.5183   39.7281 H         1 UNK         0.0300 
     44 H44        -6.2916   -1.9070   39.5690 H         1 UNK         0.0300 
     45 H45        -7.6588   -1.9473   40.7095 H         1 UNK         0.0300 
     46 H46        -9.7492   -1.8622   35.0905 H         1 UNK         0.0300 
     47 H47        -8.4429   -3.0295   35.2710 H         1 UNK         0.0300 
     48 H48        -8.4946   -1.5798   36.2888 H         1 UNK         0.0300 
     49 H49        -6.2981   -8.2319   42.5767 H         1 UNK         0.0600 
     50 H50        -4.7817   -7.7323   41.8725 H         1 UNK         0.0600 
     51 H51        -7.1497   -7.7226   39.5161 H         1 UNK         0.3000 
@<TRIPOS>BOND
     1    1    3 ar   
     2    1    7 ar   
     3    1   30 1    
     4    2    4 ar   
     5    2    7 ar   
     6    2   31 1    
     7    3   12 ar   
     8    3   32 1    
     9    4   12 ar   
    10    4   33 1    
    11    5    8 ar   
    12    5    9 ar   
    13    5   34 1    
    14    6    8 ar   
    15    6   10 ar   
    16    6   35 1    
    17    7   21 1    
    18    8   23 1    
    19    9   11 ar   
    20    9   26 1    
    21   10   11 ar   
    22   10   27 1    
    23   11   28 1    
    24   12   29 1    
    25   13   21 am   BACKBONE|DICT|INTERRES
    26   13   22 am   BACKBONE|DICT|INTERRES
    27   13   24 2    
    28   14   20 1    
    29   14   23 am   BACKBONE|DICT|INTERRES
    30   14   25 2    
    31   15   16 1    
    32   15   21 1    
    33   15   36 1    
    34   15   37 1    
    35   16   22 1    
    36   16   38 1    
    37   16   39 1    
    38   17   26 1    
    39   17   40 1    
    40   17   41 1    
    41   17   42 1    
    42   18   27 1    
    43   18   43 1    
    44   18   44 1    
    45   18   45 1    
    46   19   28 1    
    47   19   46 1    
    48   19   47 1    
    49   19   48 1    
    50   20   22 1    
    51   20   49 1    
    52   20   50 1    
    53   23   51 1    
@<TRIPOS>SUBSTRUCTURE
     1 UNK         1 GROUP             0       ****    0 ROOT    
@<TRIPOS>MOLECULE
ZINC49382755_141
51   53    1
SMALL
USER_CHARGES


@<TRIPOS>ATOM
      1 C1         -4.1501  -10.1673   36.8899 C.ar      1 UNK        -0.1150 
      2 C2         -4.9813  -12.3582   37.5413 C.ar      1 UNK        -0.1150 
      3 C3         -3.6404  -10.7169   35.6976 C.ar      1 UNK        -0.1150 
      4 C4         -4.4707  -12.9062   36.3486 C.ar      1 UNK        -0.1150 
      5 C5         -8.7076   -6.2370   38.1669 C.ar      1 UNK        -0.1150 
      6 C6         -7.6123   -4.4051   39.3403 C.ar      1 UNK        -0.1150 
      7 C7         -4.8237  -10.9806   37.8387 C.ar      1 UNK         0.0850 
      8 C8         -7.8143   -5.7931   39.1620 C.ar      1 UNK         0.0850 
      9 C9         -9.4106   -5.3132   37.3572 C.ar      1 UNK         0.0850 
     10 C10        -8.3085   -3.4614   38.5453 C.ar      1 UNK         0.0850 
     11 C11        -9.1976   -3.9303   37.5476 C.ar      1 UNK         0.0850 
     12 C12        -3.7983  -12.0866   35.4261 C.ar      1 UNK         0.1800 
     13 C13        -5.0445   -9.2952   39.6730 C.2       1 UNK         0.8613 
     14 C14        -6.4886   -6.7004   41.0899 C.2       1 UNK         0.5000 
     15 C15        -6.3668  -11.1888   39.8356 C.3       1 UNK        -0.0703 
     16 C16        -6.7453  -10.2348   40.9620 C.3       1 UNK        -0.0703 
     17 C17       -10.5639   -7.0615   36.1691 C.3       1 UNK         0.1100 
     18 C18        -7.3341   -1.6037   39.7292 C.3       1 UNK         0.1100 
     19 C19        -9.0980   -2.3487   35.8186 C.3       1 UNK         0.1100 
     20 C20        -5.8211   -7.9708   41.6372 C.3       1 UNK         0.0025 
     21 N21        -5.3700  -10.4537   39.0589 N.am      1 UNK        -0.2572 
     22 N22        -5.8508   -9.1219   40.7289 N.am      1 UNK        -0.2947 
     23 N23        -7.1325   -6.7925   39.9111 N.am      1 UNK        -0.3850 
     24 O24        -4.1936   -8.4818   39.3281 O.2       1 UNK        -0.6163 
     25 O25        -6.4365   -5.6783   41.7674 O.2       1 UNK        -0.5000 
     26 O26       -10.2970   -5.6819   36.3651 O.3       1 UNK        -0.2850 
     27 O27        -8.1752   -2.0952   38.6957 O.3       1 UNK        -0.2850 
     28 O28        -9.8972   -3.0543   36.7551 O.3       1 UNK        -0.2850 
     29 Cl29       -3.1762  -12.7585   33.9654 Cl        1 UNK        -0.1800 
     30 H30        -4.0132   -9.1075   37.0421 H         1 UNK         0.1150 
     31 H31        -5.4882  -13.0252   38.2214 H         1 UNK         0.1150 
     32 H32        -3.1279  -10.0845   34.9874 H         1 UNK         0.1150 
     33 H33        -4.5938  -13.9587   36.1393 H         1 UNK         0.1150 
     34 H34        -8.8475   -7.2980   38.0358 H         1 UNK         0.1150 
     35 H35        -6.9145   -4.0647   40.0869 H         1 UNK         0.1150 
     36 H36        -5.9363  -12.1052   40.2433 H         1 UNK         0.0600 
     37 H37        -7.2310  -11.4494   39.2223 H         1 UNK         0.0600 
     38 H38        -7.7864   -9.9157   40.8929 H         1 UNK         0.0600 
     39 H39        -6.5763  -10.6786   41.9445 H         1 UNK         0.0600 
     40 H40       -11.2955   -7.1746   35.3692 H         1 UNK         0.0300 
     41 H41       -10.9843   -7.5178   37.0663 H         1 UNK         0.0300 
     42 H42        -9.6652   -7.6033   35.8719 H         1 UNK         0.0300 
     43 H43        -7.3670   -0.5144   39.7308 H         1 UNK         0.0300 
     44 H44        -6.2963   -1.9009   39.5735 H         1 UNK         0.0300 
     45 H45        -7.6658   -1.9443   40.7110 H         1 UNK         0.0300 
     46 H46        -9.7450   -1.8660   35.0864 H         1 UNK         0.0300 
     47 H47        -8.4301   -3.0213   35.2783 H         1 UNK         0.0300 
     48 H48        -8.5018   -1.5699   36.2928 H         1 UNK         0.0300 
     49 H49        -6.3040   -8.2304   42.5795 H         1 UNK         0.0600 
     50 H50        -4.7848   -7.7305   41.8814 H         1 UNK         0.0600 
     51 H51        -7.1500   -7.7195   39.5213 H         1 UNK         0.3000 
@<TRIPOS>BOND
     1    1    3 ar   
     2    1    7 ar   
     3    1   30 1    
     4    2    4 ar   
     5    2    7 ar   
     6    2   31 1    
     7    3   12 ar   
     8    3   32 1    
     9    4   12 ar   
    10    4   33 1    
    11    5    8 ar   
    12    5    9 ar   
    13    5   34 1    
    14    6    8 ar   
    15    6   10 ar   
    16    6   35 1    
    17    7   21 1    
    18    8   23 1    
    19    9   11 ar   
    20    9   26 1    
    21   10   11 ar   
    22   10   27 1    
    23   11   28 1    
    24   12   29 1    
    25   13   21 am   BACKBONE|DICT|INTERRES
    26   13   22 am   BACKBONE|DICT|INTERRES
    27   13   24 2    
    28   14   20 1    
    29   14   23 am   BACKBONE|DICT|INTERRES
    30   14   25 2    
    31   15   16 1    
    32   15   21 1    
    33   15   36 1    
    34   15   37 1    
    35   16   22 1    
    36   16   38 1    
    37   16   39 1    
    38   17   26 1    
    39   17   40 1    
    40   17   41 1    
    41   17   42 1    
    42   18   27 1    
    43   18   43 1    
    44   18   44 1    
    45   18   45 1    
    46   19   28 1    
    47   19   46 1    
    48   19   47 1    
    49   19   48 1    
    50   20   22 1    
    51   20   49 1    
    52   20   50 1    
    53   23   51 1    
@<TRIPOS>SUBSTRUCTURE
     1 UNK         1 GROUP             0       ****    0 ROOT    
@<TRIPOS>MOLECULE
ZINC54264065_10
47   49    1
SMALL
USER_CHARGES


@<TRIPOS>ATOM
      1 C1        -15.8708  -26.4421   36.5208 C.ar      1 UNK        -0.1150 
      2 C2        -15.9035  -26.7611   37.8916 C.ar      1 UNK        -0.1150 
      3 C3        -16.4529  -25.2440   36.0657 C.ar      1 UNK        -0.1150 
      4 C4        -16.5154  -25.8821   38.8072 C.ar      1 UNK        -0.1150 
      5 C5        -17.0652  -24.3649   36.9809 C.ar      1 UNK        -0.1150 
      6 C6        -23.3108  -14.8490   37.7678 C.ar      1 UNK        -0.1150 
      7 C7        -21.9199  -14.6920   37.9092 C.ar      1 UNK        -0.1150 
      8 C8        -18.3304  -22.7117   41.1294 C.ar      1 UNK        -0.3200 
      9 C9        -23.0791  -17.2272   38.1998 C.ar      1 UNK        -0.1150 
     10 C10       -17.5296  -23.7100   40.6535 C.ar      1 UNK         0.0360 
     11 C11       -21.6785  -17.0820   38.3394 C.ar      1 UNK        -0.1150 
     12 C12       -17.1003  -24.6744   38.3605 C.ar      1 UNK         0.0731 
     13 C13       -23.9045  -16.1240   37.9135 C.ar      1 UNK         0.0850 
     14 C14       -21.0909  -15.8037   38.1968 C.ar      1 UNK         0.0850 
     15 C15       -18.9819  -22.2146   39.9676 C.ar      1 UNK         0.2230 
     16 C16       -19.9703  -21.0875   40.0542 C.2       1 UNK         0.6150 
     17 C17       -26.1139  -15.2739   37.5163 C.3       1 UNK         0.1100 
     18 C18       -19.1112  -14.4375   38.2532 C.3       1 UNK         0.1100 
     19 C19       -20.7698  -18.2696   38.6530 C.3       1 UNK        -0.0050 
     20 C20       -21.4375  -19.6587   38.6445 C.3       1 UNK         0.0800 
     21 N21       -18.6061  -22.8555   38.8663 N.2       1 UNK        -0.5310 
     22 N22       -17.7154  -23.7878   39.2843 N.pl3     1 UNK         0.1189 
     23 N23       -20.4655  -20.7212   38.8695 N.am      1 UNK        -0.5000 
     24 O24       -20.2788  -20.5618   41.1231 O.2       1 UNK        -0.5000 
     25 O25       -25.2549  -16.3699   37.7940 O.3       1 UNK        -0.2850 
     26 O26       -19.7227  -15.7152   38.3499 O.3       1 UNK        -0.2850 
     27 H27       -15.4029  -27.1170   35.8184 H         1 UNK         0.1150 
     28 H28       -15.4617  -27.6829   38.2411 H         1 UNK         0.1150 
     29 H29       -16.4313  -24.9969   35.0141 H         1 UNK         0.1150 
     30 H30       -16.5396  -26.1538   39.8512 H         1 UNK         0.1150 
     31 H31       -17.5063  -23.4474   36.6198 H         1 UNK         0.1150 
     32 H32       -23.9002  -13.9723   37.5491 H         1 UNK         0.1150 
     33 H33       -21.5129  -13.7002   37.7912 H         1 UNK         0.1150 
     34 H34       -18.4436  -22.3728   42.1488 H         1 UNK         0.1500 
     35 H35       -23.5555  -18.1886   38.3116 H         1 UNK         0.1150 
     36 H36       -16.8458  -24.3600   41.1782 H         1 UNK         0.1350 
     37 H37       -25.8708  -14.8091   36.5599 H         1 UNK         0.0300 
     38 H38       -27.1426  -15.6296   37.4574 H         1 UNK         0.0300 
     39 H39       -26.0698  -14.5228   38.3062 H         1 UNK         0.0300 
     40 H40       -18.0391  -14.5395   38.4208 H         1 UNK         0.0300 
     41 H41       -19.2497  -14.0040   37.2619 H         1 UNK         0.0300 
     42 H42       -19.4981  -13.7510   39.0077 H         1 UNK         0.0300 
     43 H43       -19.9530  -18.2636   37.9302 H         1 UNK         0.0600 
     44 H44       -20.3163  -18.0868   39.6286 H         1 UNK         0.0600 
     45 H45       -22.2163  -19.7140   39.4077 H         1 UNK         0.0600 
     46 H46       -21.9163  -19.8405   37.6819 H         1 UNK         0.0600 
     47 H47       -20.1122  -21.2570   38.0880 H         1 UNK         0.3000 
@<TRIPOS>BOND
     1    1    2 ar   
     2    1    3 ar   
     3    1   27 1    
     4    2    4 ar   
     5    2   28 1    
     6    3    5 ar   
     7    3   29 1    
     8    4   12 ar   
     9    4   30 1    
    10    5   12 ar   
    11    5   31 1    
    12    6    7 ar   
    13    6   13 ar   
    14    6   32 1    
    15    7   14 ar   
    16    7   33 1    
    17    8   10 ar   
    18    8   15 ar   
    19    8   34 1    
    20    9   11 ar   
    21    9   13 ar   
    22    9   35 1    
    23   10   22 ar   
    24   10   36 1    
    25   11   14 ar   
    26   11   19 1    
    27   12   22 1    
    28   13   25 1    
    29   14   26 1    
    30   15   16 1    
    31   15   21 ar   
    32   16   23 am   BACKBONE|DICT|INTERRES
    33   16   24 2    
    34   17   25 1    
    35   17   37 1    
    36   17   38 1    
    37   17   39 1    
    38   18   26 1    
    39   18   40 1    
    40   18   41 1    
    41   18   42 1    
    42   19   20 1    
    43   19   43 1    
    44   19   44 1    
    45   20   23 1    
    46   20   45 1    
    47   20   46 1    
    48   21   22 ar   
    49   23   47 1    
@<TRIPOS>SUBSTRUCTURE
     1 UNK         1 GROUP             0       ****    0 ROOT    
@<TRIPOS>MOLECULE
ZINC54662053_137
45   47    1
SMALL
USER_CHARGES


@<TRIPOS>ATOM
      1 C1        -17.5013  -16.5625   38.3955 C.ar      1 UNK        -0.1150 
      2 C2        -15.5513  -15.3039   39.1301 C.ar      1 UNK        -0.1150 
      3 C3        -16.4268  -16.3940   39.2945 C.ar      1 UNK        -0.1150 
      4 C4        -17.6682  -15.6839   37.2972 C.ar      1 UNK         0.0850 
      5 C5        -15.7131  -14.4024   38.0621 C.ar      1 UNK         0.0850 
      6 C6        -16.7618  -14.6107   37.1267 C.ar      1 UNK         0.2000 
      7 C7        -14.0292  -20.4961   37.6534 C.2       1 UNK         0.5486 
      8 C8        -13.1896  -21.0168   35.8267 C.2       1 UNK         0.5497 
      9 C9        -16.2461  -17.3213   40.4615 C.2       1 UNK         0.6150 
     10 C10       -14.7156  -20.2261   41.4675 C.3       1 UNK        -0.1200 
     11 C11       -14.2350  -20.8482   40.1436 C.3       1 UNK        -0.1200 
     12 C12       -16.1295  -19.6369   41.3147 C.3       1 UNK        -0.0500 
     13 C13       -15.8266  -19.2717   38.9220 C.3       1 UNK        -0.0500 
     14 C14       -14.4056  -19.8730   38.9603 C.3       1 UNK         0.0550 
     15 C15       -12.3068  -21.0305   34.6303 C.3       1 UNK        -0.0650 
     16 C16       -19.5908  -16.8956   36.4964 C.3       1 UNK         0.1100 
     17 C17       -15.3309  -12.0613   37.9405 C.3       1 UNK         0.1100 
     18 N18       -13.0449  -20.1222   36.8416 N.2       1 UNK        -0.7040 
     19 N19       -14.1768  -21.8926   35.9610 N.2       1 UNK        -0.4268 
     20 N20       -16.1379  -18.6531   40.2226 N.am      1 UNK        -0.1400 
     21 O21       -16.2143  -16.8412   41.5929 O.2       1 UNK        -0.5000 
     22 O22       -14.7499  -21.5469   37.1929 O.3       1 UNK        -0.1975 
     23 O23       -18.6745  -15.8192   36.3626 O.3       1 UNK        -0.2850 
     24 O24       -14.7989  -13.3793   37.9740 O.3       1 UNK        -0.2850 
     25 Br25      -16.9598  -13.4940   35.5901 Br        1 UNK        -0.2000 
     26 H26       -18.1812  -17.3842   38.5627 H         1 UNK         0.1150 
     27 H27       -14.7465  -15.1503   39.8356 H         1 UNK         0.1150 
     28 H28       -14.7043  -20.9766   42.2591 H         1 UNK         0.0600 
     29 H29       -14.0250  -19.4406   41.7795 H         1 UNK         0.0600 
     30 H30       -13.1926  -21.1582   40.2271 H         1 UNK         0.0600 
     31 H31       -14.8090  -21.7554   39.9488 H         1 UNK         0.0600 
     32 H32       -16.8460  -20.4282   41.0899 H         1 UNK         0.0600 
     33 H33       -16.4567  -19.2068   42.2635 H         1 UNK         0.0600 
     34 H34       -15.8748  -18.5782   38.0840 H         1 UNK         0.0600 
     35 H35       -16.5622  -20.0486   38.7086 H         1 UNK         0.0600 
     36 H36       -13.7082  -19.0483   39.1167 H         1 UNK         0.0600 
     37 H37       -11.6048  -21.8614   34.6944 H         1 UNK         0.0600 
     38 H38       -12.9011  -21.1428   33.7237 H         1 UNK         0.0600 
     39 H39       -11.7425  -20.1004   34.5619 H         1 UNK         0.0600 
     40 H40       -19.0841  -17.8605   36.4489 H         1 UNK         0.0300 
     41 H41       -20.3076  -16.8606   35.6759 H         1 UNK         0.0300 
     42 H42       -20.1542  -16.8262   37.4277 H         1 UNK         0.0300 
     43 H43       -15.2625  -11.6464   36.9350 H         1 UNK         0.0300 
     44 H44       -14.7419  -11.4204   38.5965 H         1 UNK         0.0300 
     45 H45       -16.3690  -12.0082   38.2739 H         1 UNK         0.0300 
@<TRIPOS>BOND
     1    1    3 ar   
     2    1    4 ar   
     3    1   26 1    
     4    2    3 ar   
     5    2    5 ar   
     6    2   27 1    
     7    3    9 1    
     8    4    6 ar   
     9    4   23 1    
    10    5    6 ar   
    11    5   24 1    
    12    6   25 1    
    13    7   14 1    
    14    7   18 2    
    15    7   22 1    
    16    8   15 1    
    17    8   18 1    
    18    8   19 2    
    19    9   20 am   BACKBONE|DICT|INTERRES
    20    9   21 2    
    21   10   11 1    
    22   10   12 1    
    23   10   28 1    
    24   10   29 1    
    25   11   14 1    
    26   11   30 1    
    27   11   31 1    
    28   12   20 1    
    29   12   32 1    
    30   12   33 1    
    31   13   14 1    
    32   13   20 1    
    33   13   34 1    
    34   13   35 1    
    35   14   36 1    
    36   15   37 1    
    37   15   38 1    
    38   15   39 1    
    39   16   23 1    
    40   16   40 1    
    41   16   41 1    
    42   16   42 1    
    43   17   24 1    
    44   17   43 1    
    45   17   44 1    
    46   17   45 1    
    47   19   22 1    
@<TRIPOS>SUBSTRUCTURE
     1 UNK         1 GROUP             0       ****    0 ROOT    
@<TRIPOS>MOLECULE
ZINC54662411_90
44   46    1
SMALL
USER_CHARGES


@<TRIPOS>ATOM
      1 C1         -6.2336   -4.3272   39.0911 C.ar      1 UNK        -0.1150 
      2 C2         -6.6250   -3.4902   38.0306 C.ar      1 UNK        -0.1150 
      3 C3         -8.1108   -5.8056   38.6100 C.ar      1 UNK        -0.1150 
      4 C4         -6.9594   -5.5022   39.3713 C.ar      1 UNK        -0.1150 
      5 C5         -7.7551   -3.8134   37.2523 C.ar      1 UNK        -0.1150 
      6 C6         -8.5124   -4.9714   37.5373 C.ar      1 UNK         0.0850 
      7 C7         -4.4453   -9.4475   37.4939 C.2       1 UNK         0.5486 
      8 C8         -3.7798   -9.9925   35.6032 C.2       1 UNK         0.5497 
      9 C9         -6.5410   -6.3785   40.5177 C.2       1 UNK         0.6150 
     10 C10        -4.6399   -9.1139   41.3584 C.3       1 UNK        -0.1200 
     11 C11        -4.2882   -9.7343   39.9943 C.3       1 UNK        -0.1200 
     12 C12        -6.1073   -8.6503   41.3862 C.3       1 UNK        -0.0500 
     13 C13        -6.1551   -8.3296   38.9683 C.3       1 UNK        -0.0500 
     14 C14        -4.6959   -8.8132   38.8257 C.3       1 UNK         0.0550 
     15 C15        -8.1663   -2.9063   36.1087 C.3       1 UNK        -0.0650 
     16 C16        -3.0301  -10.0095   34.3193 C.3       1 UNK        -0.0650 
     17 C17       -10.3862   -6.3807   37.0040 C.3       1 UNK         0.1100 
     18 N18        -3.5680   -9.0609   36.5720 N.2       1 UNK        -0.7040 
     19 N19        -4.7039  -10.9061   35.8679 N.2       1 UNK        -0.4268 
     20 N20        -6.3454   -7.7024   40.2882 N.am      1 UNK        -0.1400 
     21 O21        -6.3951   -5.8678   41.6274 O.2       1 UNK        -0.5000 
     22 O22        -5.1563  -10.5471   37.1452 O.3       1 UNK        -0.1975 
     23 O23        -9.6114   -5.2200   36.7424 O.3       1 UNK        -0.2850 
     24 H24        -5.3722   -4.0689   39.6916 H         1 UNK         0.1150 
     25 H25        -6.0547   -2.5969   37.8211 H         1 UNK         0.1150 
     26 H26        -8.6715   -6.6910   38.8674 H         1 UNK         0.1150 
     27 H27        -4.4578   -9.8353   42.1560 H         1 UNK         0.0600 
     28 H28        -3.9857   -8.2635   41.5582 H         1 UNK         0.0600 
     29 H29        -3.2215   -9.9564   39.9423 H         1 UNK         0.0600 
     30 H30        -4.8049  -10.6902   39.8957 H         1 UNK         0.0600 
     31 H31        -6.7764   -9.5045   41.2738 H         1 UNK         0.0600 
     32 H32        -6.3424   -8.2220   42.3629 H         1 UNK         0.0600 
     33 H33        -6.3702   -7.6654   38.1329 H         1 UNK         0.0600 
     34 H34        -6.8449   -9.1688   38.8688 H         1 UNK         0.0600 
     35 H35        -4.0560   -7.9303   38.8693 H         1 UNK         0.0600 
     36 H36        -8.1952   -3.4684   35.1750 H         1 UNK         0.0600 
     37 H37        -9.1606   -2.4990   36.2924 H         1 UNK         0.0600 
     38 H38        -7.4731   -2.0744   35.9846 H         1 UNK         0.0600 
     39 H39        -2.3492  -10.8598   34.2961 H         1 UNK         0.0600 
     40 H40        -3.7216  -10.0917   33.4810 H         1 UNK         0.0600 
     41 H41        -2.4499   -9.0942   34.2024 H         1 UNK         0.0600 
     42 H42       -11.2062   -6.4341   36.2879 H         1 UNK         0.0300 
     43 H43       -10.8230   -6.3511   38.0030 H         1 UNK         0.0300 
     44 H44        -9.7932   -7.2896   36.8935 H         1 UNK         0.0300 
@<TRIPOS>BOND
     1    1    2 ar   
     2    1    4 ar   
     3    1   24 1    
     4    2    5 ar   
     5    2   25 1    
     6    3    4 ar   
     7    3    6 ar   
     8    3   26 1    
     9    4    9 1    
    10    5    6 ar   
    11    5   15 1    
    12    6   23 1    
    13    7   14 1    
    14    7   18 2    
    15    7   22 1    
    16    8   16 1    
    17    8   18 1    
    18    8   19 2    
    19    9   20 am   BACKBONE|DICT|INTERRES
    20    9   21 2    
    21   10   11 1    
    22   10   12 1    
    23   10   27 1    
    24   10   28 1    
    25   11   14 1    
    26   11   29 1    
    27   11   30 1    
    28   12   20 1    
    29   12   31 1    
    30   12   32 1    
    31   13   14 1    
    32   13   20 1    
    33   13   33 1    
    34   13   34 1    
    35   14   35 1    
    36   15   36 1    
    37   15   37 1    
    38   15   38 1    
    39   16   39 1    
    40   16   40 1    
    41   16   41 1    
    42   17   23 1    
    43   17   42 1    
    44   17   43 1    
    45   17   44 1    
    46   19   22 1    
@<TRIPOS>SUBSTRUCTURE
     1 UNK         1 GROUP             0       ****    0 ROOT    
@<TRIPOS>MOLECULE
ZINC55805816_100
45   47    1
SMALL
USER_CHARGES


@<TRIPOS>ATOM
      1 C1         -4.7780  -12.0260   35.1600 C.ar      1 UNK        -0.1150 
      2 C2         -4.3120  -10.7574   35.5557 C.ar      1 UNK        -0.1150 
      3 C3         -5.6113  -12.7687   36.0186 C.ar      1 UNK        -0.1150 
      4 C4         -4.6802  -10.2319   36.8102 C.ar      1 UNK        -0.1150 
      5 C5         -5.9788  -12.2429   37.2734 C.ar      1 UNK        -0.1150 
      6 C6         -8.2996   -4.4647   39.6924 C.ar      1 UNK        -0.1150 
      7 C7         -8.9944   -3.5400   38.8923 C.ar      1 UNK        -0.1150 
      8 C8         -8.5848   -4.9156   36.9328 C.ar      1 UNK        -0.1150 
      9 C9         -6.8431  -10.3872   40.9208 C.2       1 UNK        -0.1480 
     10 C10        -5.5157  -10.9708   37.6765 C.ar      1 UNK         0.0000 
     11 C11        -7.8864   -5.8508   37.7269 C.ar      1 UNK        -0.1150 
     12 C12        -7.7455   -5.6321   39.1190 C.ar      1 UNK         0.0850 
     13 C13        -9.1466   -3.7507   37.5099 C.ar      1 UNK         0.0850 
     14 C14        -6.2041   -9.1895   40.7347 C.2       1 UNK         0.1450 
     15 C15        -5.8914  -10.4190   38.9750 C.2       1 UNK         0.5540 
     16 C16        -7.0143   -6.8448   41.1922 C.2       1 UNK         0.5000 
     17 C17        -7.2999   -7.0910   37.0701 C.3       1 UNK        -0.0650 
     18 C18       -10.8134   -1.7748   34.8752 C.3       1 UNK        -0.1800 
     19 C19        -6.1119   -7.9968   41.6512 C.3       1 UNK        -0.0050 
     20 C20       -10.0153   -2.9648   35.4108 C.3       1 UNK         0.1400 
     21 N21        -5.5988   -9.2185   39.4815 N.2       1 UNK        -0.5900 
     22 N22        -7.0133   -6.5882   39.8724 N.am      1 UNK        -0.3850 
     23 O23        -7.6650   -6.2208   42.0288 O.2       1 UNK        -0.5000 
     24 O24        -6.6560  -11.1716   39.8143 O.3       1 UNK        -0.2570 
     25 O25        -9.8406   -2.7890   36.8083 O.3       1 UNK        -0.2850 
     26 H26        -4.4949  -12.4306   34.1986 H         1 UNK         0.1150 
     27 H27        -3.6697  -10.1885   34.8987 H         1 UNK         0.1150 
     28 H28        -5.9679  -13.7428   35.7156 H         1 UNK         0.1150 
     29 H29        -4.3174   -9.2600   37.1134 H         1 UNK         0.1150 
     30 H30        -6.6178  -12.8196   37.9267 H         1 UNK         0.1150 
     31 H31        -8.1984   -4.2511   40.7456 H         1 UNK         0.1150 
     32 H32        -9.4143   -2.6540   39.3448 H         1 UNK         0.1150 
     33 H33        -8.6801   -5.1094   35.8761 H         1 UNK         0.1150 
     34 H34        -7.4343  -10.8067   41.7226 H         1 UNK         0.1810 
     35 H35        -6.2158   -7.1084   37.1845 H         1 UNK         0.0600 
     36 H36        -7.7105   -7.9935   37.5242 H         1 UNK         0.0600 
     37 H37        -7.5235   -7.1249   36.0037 H         1 UNK         0.0600 
     38 H38       -11.7882   -1.7111   35.3588 H         1 UNK         0.0600 
     39 H39       -10.2873   -0.8380   35.0597 H         1 UNK         0.0600 
     40 H40       -10.9763   -1.8634   33.8012 H         1 UNK         0.0600 
     41 H41        -6.3903   -8.2752   42.6680 H         1 UNK         0.0600 
     42 H42        -5.0864   -7.6312   41.7029 H         1 UNK         0.0600 
     43 H43        -9.0477   -3.0139   34.9090 H         1 UNK         0.0300 
     44 H44       -10.5557   -3.8904   35.2079 H         1 UNK         0.0300 
     45 H45        -6.4718   -7.2564   39.3364 H         1 UNK         0.3000 
@<TRIPOS>BOND
     1    1    2 ar   
     2    1    3 ar   
     3    1   26 1    
     4    2    4 ar   
     5    2   27 1    
     6    3    5 ar   
     7    3   28 1    
     8    4   10 ar   
     9    4   29 1    
    10    5   10 ar   
    11    5   30 1    
    12    6    7 ar   
    13    6   12 ar   
    14    6   31 1    
    15    7   13 ar   
    16    7   32 1    
    17    8   11 ar   
    18    8   13 ar   
    19    8   33 1    
    20    9   14 2    
    21    9   24 1    
    22    9   34 1    
    23   10   15 1    
    24   11   12 ar   
    25   11   17 1    
    26   12   22 1    
    27   13   25 1    
    28   14   19 1    
    29   14   21 1    
    30   15   21 2    
    31   15   24 1    
    32   16   19 1    
    33   16   22 am   BACKBONE|DICT|INTERRES
    34   16   23 2    
    35   17   35 1    
    36   17   36 1    
    37   17   37 1    
    38   18   20 1    
    39   18   38 1    
    40   18   39 1    
    41   18   40 1    
    42   19   41 1    
    43   19   42 1    
    44   20   25 1    
    45   20   43 1    
    46   20   44 1    
    47   22   45 1    
@<TRIPOS>SUBSTRUCTURE
     1 UNK         1 GROUP             0       ****    0 ROOT    
@<TRIPOS>MOLECULE
ZINC55948245_75
39   41    1
SMALL
USER_CHARGES


@<TRIPOS>ATOM
      1 C1         -4.6109  -12.2614   35.1971 C.ar      1 UNK        -0.1150 
      2 C2         -4.2443  -10.9309   35.4770 C.ar      1 UNK        -0.1150 
      3 C3         -5.3474  -13.0018   36.1420 C.ar      1 UNK        -0.1150 
      4 C4         -4.6144  -10.3417   36.7023 C.ar      1 UNK        -0.1150 
      5 C5         -5.7183  -12.4115   37.3667 C.ar      1 UNK        -0.1150 
      6 C6         -7.9781   -4.3721   39.3298 C.ar      1 UNK        -0.1150 
      7 C7         -7.6643   -5.8794   37.4519 C.ar      1 UNK        -0.1150 
      8 C8         -6.6636  -10.3377   40.8747 C.2       1 UNK        -0.1480 
      9 C9         -5.3539  -11.0774   37.6543 C.ar      1 UNK         0.0000 
     10 C10        -7.4930   -5.5990   38.8210 C.ar      1 UNK         0.0850 
     11 C11        -8.8246   -3.7427   37.1114 C.ar      1 UNK         0.0850 
     12 C12        -8.6393   -3.4522   38.4922 C.ar      1 UNK         0.2200 
     13 C13        -8.3250   -4.9649   36.6110 C.ar      1 UNK         0.2200 
     14 C14        -6.0518   -9.1393   40.6151 C.2       1 UNK         0.1450 
     15 C15        -5.7352  -10.4573   38.9204 C.2       1 UNK         0.5540 
     16 C16        -6.8185   -6.7521   40.9399 C.2       1 UNK         0.5000 
     17 C17       -10.0002   -1.6848   36.6127 C.3       1 UNK         0.1100 
     18 C18        -5.9571   -7.9038   41.4729 C.3       1 UNK        -0.0050 
     19 N19        -5.4663   -9.2229   39.3549 N.2       1 UNK        -0.5900 
     20 N20        -6.8025   -6.5613   39.6085 N.am      1 UNK        -0.3850 
     21 O21        -7.4590   -6.0623   41.7309 O.2       1 UNK        -0.5000 
     22 O22        -6.4724  -11.1780   39.8107 O.3       1 UNK        -0.2570 
     23 O23        -9.4551   -2.9252   36.1919 O.3       1 UNK        -0.2850 
     24 F24        -9.0762   -2.2967   39.0493 F         1 UNK        -0.2200 
     25 F25        -8.4768   -5.2715   35.2999 F         1 UNK        -0.2200 
     26 H26        -4.3267  -12.7142   34.2579 H         1 UNK         0.1150 
     27 H27        -3.6788  -10.3621   34.7527 H         1 UNK         0.1150 
     28 H28        -5.6278  -14.0231   35.9274 H         1 UNK         0.1150 
     29 H29        -4.3289   -9.3213   36.9149 H         1 UNK         0.1150 
     30 H30        -6.2835  -12.9867   38.0860 H         1 UNK         0.1150 
     31 H31        -7.8491   -4.1041   40.3676 H         1 UNK         0.1150 
     32 H32        -7.2981   -6.8033   37.0283 H         1 UNK         0.1150 
     33 H33        -7.2300  -10.7279   41.7087 H         1 UNK         0.1810 
     34 H34       -10.4656   -1.1937   35.7584 H         1 UNK         0.0300 
     35 H35        -9.2275   -1.0141   36.9903 H         1 UNK         0.0300 
     36 H36       -10.7741   -1.8203   37.3693 H         1 UNK         0.0300 
     37 H37        -6.2665   -8.1263   42.4947 H         1 UNK         0.0600 
     38 H38        -4.9244   -7.5603   41.5344 H         1 UNK         0.0600 
     39 H39        -6.2844   -7.2799   39.1112 H         1 UNK         0.3000 
@<TRIPOS>BOND
     1    1    2 ar   
     2    1    3 ar   
     3    1   26 1    
     4    2    4 ar   
     5    2   27 1    
     6    3    5 ar   
     7    3   28 1    
     8    4    9 ar   
     9    4   29 1    
    10    5    9 ar   
    11    5   30 1    
    12    6   10 ar   
    13    6   12 ar   
    14    6   31 1    
    15    7   10 ar   
    16    7   13 ar   
    17    7   32 1    
    18    8   14 2    
    19    8   22 1    
    20    8   33 1    
    21    9   15 1    
    22   10   20 1    
    23   11   12 ar   
    24   11   13 ar   
    25   11   23 1    
    26   12   24 1    
    27   13   25 1    
    28   14   18 1    
    29   14   19 1    
    30   15   19 2    
    31   15   22 1    
    32   16   18 1    
    33   16   20 am   BACKBONE|DICT|INTERRES
    34   16   21 2    
    35   17   23 1    
    36   17   34 1    
    37   17   35 1    
    38   17   36 1    
    39   18   37 1    
    40   18   38 1    
    41   20   39 1    
@<TRIPOS>SUBSTRUCTURE
     1 UNK         1 GROUP             0       ****    0 ROOT    
@<TRIPOS>MOLECULE
ZINC56521501_44
55   57    1
SMALL
USER_CHARGES


@<TRIPOS>ATOM
      1 C1         -6.3608  -10.7644   35.8508 C.ar      1 UNK        -0.1925 
      2 C2         -5.0602  -10.2296   35.9721 C.ar      1 UNK        -0.1228 
      3 C3         -7.2178  -10.8319   36.9721 C.ar      1 UNK        -0.3038 
      4 C4         -4.6095   -9.7613   37.2218 C.ar      1 UNK        -0.3245 
      5 C5         -7.3507  -10.2487   39.5512 C.2       1 UNK        -0.5146 
      6 C6         -7.9194   -6.5639   38.0643 C.ar      1 UNK        -0.1150 
      7 C7         -8.0267   -4.6983   39.6298 C.ar      1 UNK        -0.1150 
      8 C8         -6.7906  -10.3672   38.2368 C.ar      1 UNK         0.2581 
      9 C9         -7.7194   -6.0496   39.3595 C.ar      1 UNK         0.1066 
     10 C10        -5.4766   -9.8410   38.3218 C.ar      1 UNK         0.3230 
     11 C11        -8.3934   -5.7339   37.0215 C.ar      1 UNK         0.0850 
     12 C12        -8.5126   -3.8502   38.6042 C.ar      1 UNK         0.0850 
     13 C13        -8.6821   -4.3794   37.3008 C.ar      1 UNK         0.0850 
     14 C14        -6.3719   -9.6800   40.3316 C.2       1 UNK         0.1363 
     15 C15        -6.3895   -6.7191   41.3524 C.2       1 UNK         0.8137 
     16 C16        -5.2194   -7.4580   44.3265 C.3       1 UNK        -0.1800 
     17 C17        -7.7557   -9.4221   42.4404 C.3       1 UNK        -0.1800 
     18 C18        -8.2214   -7.5044   35.4007 C.3       1 UNK         0.1100 
     19 C19        -8.6600   -1.9711   40.1015 C.3       1 UNK         0.1100 
     20 C20        -8.2216   -2.6345   35.8109 C.3       1 UNK         0.1100 
     21 C21        -4.7553   -7.7132   42.8831 C.3       1 UNK        -0.0703 
     22 C22        -6.3830   -9.2300   41.7655 C.3       1 UNK         0.1047 
     23 N23        -7.2551   -6.9506   40.3514 N.am      1 UNK        -0.4727 
     24 N24        -5.8889   -7.8397   41.9474 N.am      1 UNK        -0.2219 
     25 O25        -6.0488   -5.5833   41.6820 O.2       1 UNK        -0.6163 
     26 O26        -5.2338   -9.4264   39.6141 O.3       1 UNK        -0.3115 
     27 O27        -8.5844   -6.1701   35.7256 O.3       1 UNK        -0.2850 
     28 O28        -8.8481   -2.5262   38.8079 O.3       1 UNK        -0.2850 
     29 O29        -9.1560   -3.5928   36.2810 O.3       1 UNK        -0.2850 
     30 H30        -6.7019  -11.1268   34.8900 H         1 UNK         0.1571 
     31 H31        -4.4102  -10.1818   35.1087 H         1 UNK         0.1498 
     32 H32        -8.2104  -11.2429   36.8638 H         1 UNK         0.1930 
     33 H33        -3.6205   -9.3461   37.3426 H         1 UNK         0.1955 
     34 H34        -8.3456  -10.5466   39.8474 H         1 UNK         0.2419 
     35 H35        -7.6894   -7.6015   37.8814 H         1 UNK         0.1150 
     36 H36        -7.8937   -4.3262   40.6336 H         1 UNK         0.1150 
     37 H37        -5.8185   -6.5489   44.3952 H         1 UNK         0.0600 
     38 H38        -5.8160   -8.2854   44.7094 H         1 UNK         0.0600 
     39 H39        -4.3633   -7.3350   44.9904 H         1 UNK         0.0600 
     40 H40        -8.5402   -8.8452   41.9502 H         1 UNK         0.0600 
     41 H41        -8.0556  -10.4703   42.4191 H         1 UNK         0.0600 
     42 H42        -7.7276   -9.1164   43.4863 H         1 UNK         0.0600 
     43 H43        -8.4009   -7.6775   34.3398 H         1 UNK         0.0300 
     44 H44        -8.8189   -8.2275   35.9572 H         1 UNK         0.0300 
     45 H45        -7.1626   -7.6887   35.5895 H         1 UNK         0.0300 
     46 H46        -8.9480   -0.9200   40.0870 H         1 UNK         0.0300 
     47 H47        -7.6150   -2.0217   40.4107 H         1 UNK         0.0300 
     48 H48        -9.2826   -2.4720   40.8439 H         1 UNK         0.0300 
     49 H49        -8.6049   -2.1738   34.9007 H         1 UNK         0.0300 
     50 H50        -7.2650   -3.1005   35.5701 H         1 UNK         0.0300 
     51 H51        -8.0495   -1.8392   36.5357 H         1 UNK         0.0300 
     52 H52        -4.1160   -8.5957   42.8480 H         1 UNK         0.0600 
     53 H53        -4.1001   -6.8973   42.5692 H         1 UNK         0.0600 
     54 H54        -5.7114   -9.9084   42.2924 H         1 UNK         0.0600 
     55 H55        -7.3746   -7.9303   40.1435 H         1 UNK         0.2912 
@<TRIPOS>BOND
     1    1    2 ar   
     2    1    3 ar   
     3    1   30 1    
     4    2    4 ar   
     5    2   31 1    
     6    3    8 ar   
     7    3   32 1    
     8    4   10 ar   
     9    4   33 1    
    10    5    8 1    
    11    5   14 2    
    12    5   34 1    
    13    6    9 ar   
    14    6   11 ar   
    15    6   35 1    
    16    7    9 ar   
    17    7   12 ar   
    18    7   36 1    
    19    8   10 ar   
    20    9   23 1    
    21   10   26 1    
    22   11   13 ar   
    23   11   27 1    
    24   12   13 ar   
    25   12   28 1    
    26   13   29 1    
    27   14   22 1    
    28   14   26 1    
    29   15   23 am   BACKBONE|DICT|INTERRES
    30   15   24 am   BACKBONE|DICT|INTERRES
    31   15   25 2    
    32   16   21 1    
    33   16   37 1    
    34   16   38 1    
    35   16   39 1    
    36   17   22 1    
    37   17   40 1    
    38   17   41 1    
    39   17   42 1    
    40   18   27 1    
    41   18   43 1    
    42   18   44 1    
    43   18   45 1    
    44   19   28 1    
    45   19   46 1    
    46   19   47 1    
    47   19   48 1    
    48   20   29 1    
    49   20   49 1    
    50   20   50 1    
    51   20   51 1    
    52   21   24 1    
    53   21   52 1    
    54   21   53 1    
    55   22   24 1    
    56   22   54 1    
    57   23   55 1    
@<TRIPOS>SUBSTRUCTURE
     1 UNK         1 GROUP             0       ****    0 ROOT    
@<TRIPOS>MOLECULE
ZINC56921978_84
48   49    1
SMALL
USER_CHARGES


@<TRIPOS>ATOM
      1 C1        -10.7565   -8.5067   38.7351 C.ar      1 UNK        -0.1150 
      2 C2         -9.1292   -6.7971   39.3150 C.ar      1 UNK        -0.1150 
      3 C3         -9.6606   -8.0847   39.5126 C.ar      1 UNK        -0.1150 
      4 C4        -11.2774   -7.6768   37.7156 C.ar      1 UNK         0.0850 
      5 C5         -9.6390   -5.9370   38.3108 C.ar      1 UNK         0.0850 
      6 C6        -10.7068   -6.4017   37.4867 C.ar      1 UNK         0.0850 
      7 C7         -9.1101   -8.9531   40.6083 C.2       1 UNK         0.6150 
      8 C8         -6.8793  -11.4932   41.2950 C.3       1 UNK        -0.1200 
      9 C9         -6.4984  -12.0184   39.9006 C.3       1 UNK        -0.1200 
     10 C10        -8.3851  -11.1884   41.3682 C.3       1 UNK        -0.0500 
     11 C11        -8.5078  -10.7726   38.9678 C.3       1 UNK        -0.0500 
     12 C12        -7.0057  -11.0834   38.7835 C.3       1 UNK        -0.0600 
     13 C13       -12.9425   -9.3112   37.1132 C.3       1 UNK         0.1100 
     14 C14        -8.1499   -4.1659   39.0089 C.3       1 UNK         0.1100 
     15 C15       -10.4936   -4.7397   35.7449 C.3       1 UNK         0.1100 
     16 C16        -7.2103  -13.4257   35.9175 C.3       1 UNK         0.1100 
     17 C17        -6.7057  -11.6436   37.3830 C.3       1 UNK         0.1400 
     18 N18        -8.7472  -10.2282   40.3157 N.am      1 UNK        -0.1400 
     19 O19        -9.0121   -8.4745   41.7378 O.2       1 UNK        -0.5000 
     20 O20       -12.3291   -8.0486   36.9020 O.3       1 UNK        -0.2850 
     21 O21        -9.1474   -4.6592   38.1262 O.3       1 UNK        -0.2850 
     22 O22       -11.2842   -5.6737   36.4638 O.3       1 UNK        -0.2850 
     23 O23        -7.4288  -12.8497   37.1936 O.3       1 UNK        -0.4000 
     24 H24       -11.1773   -9.4803   38.9345 H         1 UNK         0.1150 
     25 H25        -8.3238   -6.4905   39.9653 H         1 UNK         0.1150 
     26 H26        -6.6068  -12.2246   42.0568 H         1 UNK         0.0600 
     27 H27        -6.3125  -10.5881   41.5186 H         1 UNK         0.0600 
     28 H28        -5.4173  -12.1417   39.8296 H         1 UNK         0.0600 
     29 H29        -6.9289  -13.0119   39.7649 H         1 UNK         0.0600 
     30 H30        -8.9608  -12.1042   41.2284 H         1 UNK         0.0600 
     31 H31        -8.6420  -10.8293   42.3666 H         1 UNK         0.0600 
     32 H32        -8.8131  -10.1036   38.1658 H         1 UNK         0.0600 
     33 H33        -9.1020  -11.6789   38.8413 H         1 UNK         0.0600 
     34 H34        -6.4614  -10.1416   38.8734 H         1 UNK         0.0600 
     35 H35       -13.7566   -9.4375   36.3996 H         1 UNK         0.0300 
     36 H36       -13.3687   -9.3851   38.1145 H         1 UNK         0.0300 
     37 H37       -12.2377  -10.1288   36.9565 H         1 UNK         0.0300 
     38 H38        -7.9104   -3.1377   38.7382 H         1 UNK         0.0300 
     39 H39        -7.2298   -4.7471   38.9366 H         1 UNK         0.0300 
     40 H40        -8.4973   -4.1601   40.0430 H         1 UNK         0.0300 
     41 H41       -10.9381   -4.5814   34.7627 H         1 UNK         0.0300 
     42 H42        -9.4743   -5.0956   35.5886 H         1 UNK         0.0300 
     43 H43       -10.4711   -3.7730   36.2480 H         1 UNK         0.0300 
     44 H44        -7.7877  -14.3459   35.8281 H         1 UNK         0.0300 
     45 H45        -6.1586  -13.6736   35.7700 H         1 UNK         0.0300 
     46 H46        -7.5269  -12.7519   35.1203 H         1 UNK         0.0300 
     47 H47        -5.6352  -11.8254   37.2734 H         1 UNK         0.0300 
     48 H48        -6.9889  -10.9148   36.6215 H         1 UNK         0.0300 
@<TRIPOS>BOND
     1    1    3 ar   
     2    1    4 ar   
     3    1   24 1    
     4    2    3 ar   
     5    2    5 ar   
     6    2   25 1    
     7    3    7 1    
     8    4    6 ar   
     9    4   20 1    
    10    5    6 ar   
    11    5   21 1    
    12    6   22 1    
    13    7   18 am   BACKBONE|DICT|INTERRES
    14    7   19 2    
    15    8    9 1    
    16    8   10 1    
    17    8   26 1    
    18    8   27 1    
    19    9   12 1    
    20    9   28 1    
    21    9   29 1    
    22   10   18 1    
    23   10   30 1    
    24   10   31 1    
    25   11   12 1    
    26   11   18 1    
    27   11   32 1    
    28   11   33 1    
    29   12   17 1    
    30   12   34 1    
    31   13   20 1    
    32   13   35 1    
    33   13   36 1    
    34   13   37 1    
    35   14   21 1    
    36   14   38 1    
    37   14   39 1    
    38   14   40 1    
    39   15   22 1    
    40   15   41 1    
    41   15   42 1    
    42   15   43 1    
    43   16   23 1    
    44   16   44 1    
    45   16   45 1    
    46   16   46 1    
    47   17   23 1    
    48   17   47 1    
    49   17   48 1    
@<TRIPOS>SUBSTRUCTURE
     1 UNK         1 GROUP             0       ****    0 ROOT    
@<TRIPOS>MOLECULE
ZINC57253131_70
47   49    1
SMALL
USER_CHARGES


@<TRIPOS>ATOM
      1 C1         -6.3927  -13.1908   37.7942 C.ar      1 UNK        -0.1150 
      2 C2         -6.3502  -11.0911   36.5677 C.ar      1 UNK        -0.1150 
      3 C3         -5.9901  -13.8783   36.6318 C.ar      1 UNK        -0.1150 
      4 C4         -5.9470  -11.7793   35.4076 C.ar      1 UNK        -0.1150 
      5 C5         -7.4641  -10.5174   41.0351 C.ar      1 UNK        -0.3200 
      6 C6         -6.9834  -11.5318   40.2573 C.ar      1 UNK         0.0360 
      7 C7         -6.5774  -11.7901   37.7747 C.ar      1 UNK         0.0731 
      8 C8         -5.7638  -13.1751   35.4231 C.ar      1 UNK         0.0850 
      9 C9         -7.7638   -9.4751   40.1115 C.ar      1 UNK         0.2230 
     10 C10        -8.2707   -8.1448   40.6178 C.2       1 UNK         0.6150 
     11 C11       -10.3808   -4.3592   37.6828 C.2       1 UNK         0.5000 
     12 C12        -9.1576   -7.4358   37.3945 C.3       1 UNK        -0.1200 
     13 C13        -9.8730   -7.9456   38.6728 C.3       1 UNK        -0.0500 
     14 C14        -8.5278   -6.0254   37.4860 C.3       1 UNK        -0.0500 
     15 C15        -9.7678   -6.1951   40.3983 C.3       1 UNK        -0.0500 
     16 C16        -9.0781   -5.0274   39.6711 C.3       1 UNK        -0.0500 
     17 C17       -10.6216   -4.4321   36.1758 C.3       1 UNK        -0.1800 
     18 C18        -5.2118  -15.1759   34.2179 C.3       1 UNK         0.1100 
     19 N19        -7.4487   -9.8266   38.8702 N.2       1 UNK        -0.5310 
     20 N20        -6.9886  -11.0966   38.9451 N.pl3     1 UNK         0.1189 
     21 N21        -9.2359   -7.4858   39.9209 N.am      1 UNK        -0.1400 
     22 N22        -9.3725   -5.0793   38.2304 N.am      1 UNK        -0.1400 
     23 O23        -7.8255   -7.7205   41.6868 O.2       1 UNK        -0.5000 
     24 O24       -11.1180   -3.6379   38.3525 O.2       1 UNK        -0.5000 
     25 O25        -5.3720  -13.7654   34.2421 O.3       1 UNK        -0.2850 
     26 H26        -6.5667  -13.7584   38.6946 H         1 UNK         0.1150 
     27 H27        -6.4813  -10.0199   36.5249 H         1 UNK         0.1150 
     28 H28        -5.8639  -14.9481   36.6933 H         1 UNK         0.1150 
     29 H29        -5.7770  -11.2302   34.4932 H         1 UNK         0.1150 
     30 H30        -7.5801  -10.5027   42.1089 H         1 UNK         0.1500 
     31 H31        -6.6301  -12.5120   40.5382 H         1 UNK         0.1350 
     32 H32        -8.3732   -8.1356   37.1068 H         1 UNK         0.0600 
     33 H33        -9.8707   -7.4689   36.5710 H         1 UNK         0.0600 
     34 H34       -10.9065   -7.5988   38.6474 H         1 UNK         0.0600 
     35 H35        -9.9642   -9.0322   38.6474 H         1 UNK         0.0600 
     36 H36        -7.5575   -6.1123   37.9768 H         1 UNK         0.0600 
     37 H37        -8.2900   -5.6534   36.4893 H         1 UNK         0.0600 
     38 H38        -9.6286   -6.0789   41.4746 H         1 UNK         0.0600 
     39 H39       -10.8480   -6.1382   40.2583 H         1 UNK         0.0600 
     40 H40        -9.4127   -4.0827   40.1042 H         1 UNK         0.0600 
     41 H41        -8.0025   -5.0495   39.8510 H         1 UNK         0.0600 
     42 H42       -10.8303   -5.4531   35.8606 H         1 UNK         0.0600 
     43 H43        -9.7580   -4.0561   35.6282 H         1 UNK         0.0600 
     44 H44       -11.4807   -3.8184   35.9036 H         1 UNK         0.0600 
     45 H45        -4.9146  -15.4866   33.2164 H         1 UNK         0.0300 
     46 H46        -6.1457  -15.6861   34.4580 H         1 UNK         0.0300 
     47 H47        -4.4327  -15.5016   34.9085 H         1 UNK         0.0300 
@<TRIPOS>BOND
     1    1    3 ar   
     2    1    7 ar   
     3    1   26 1    
     4    2    4 ar   
     5    2    7 ar   
     6    2   27 1    
     7    3    8 ar   
     8    3   28 1    
     9    4    8 ar   
    10    4   29 1    
    11    5    6 ar   
    12    5    9 ar   
    13    5   30 1    
    14    6   20 ar   
    15    6   31 1    
    16    7   20 1    
    17    8   25 1    
    18    9   10 1    
    19    9   19 ar   
    20   10   21 am   BACKBONE|DICT|INTERRES
    21   10   23 2    
    22   11   17 1    
    23   11   22 am   BACKBONE|DICT|INTERRES
    24   11   24 2    
    25   12   13 1    
    26   12   14 1    
    27   12   32 1    
    28   12   33 1    
    29   13   21 1    
    30   13   34 1    
    31   13   35 1    
    32   14   22 1    
    33   14   36 1    
    34   14   37 1    
    35   15   16 1    
    36   15   21 1    
    37   15   38 1    
    38   15   39 1    
    39   16   22 1    
    40   16   40 1    
    41   16   41 1    
    42   17   42 1    
    43   17   43 1    
    44   17   44 1    
    45   18   25 1    
    46   18   45 1    
    47   18   46 1    
    48   18   47 1    
    49   19   20 ar   
@<TRIPOS>SUBSTRUCTURE
     1 UNK         1 GROUP             0       ****    0 ROOT    
@<TRIPOS>MOLECULE
ZINC57337931_9
43   45    1
SMALL
USER_CHARGES


@<TRIPOS>ATOM
      1 C1         -4.1319   -7.0617   36.8721 C.ar      1 UNK        -0.1150 
      2 C2         -4.3745   -8.3698   36.4156 C.ar      1 UNK        -0.1150 
      3 C3         -4.4941   -6.6935   38.1814 C.ar      1 UNK        -0.1150 
      4 C4         -4.9695   -9.3126   37.2740 C.ar      1 UNK        -0.1150 
      5 C5         -7.6690   -5.9472   38.6393 C.ar      1 UNK        -0.1150 
      6 C6         -6.6844   -3.9221   39.5705 C.ar      1 UNK        -0.1150 
      7 C7         -6.8451   -5.3223   39.6007 C.ar      1 UNK        -0.1150 
      8 C8         -5.1203   -7.6255   39.0466 C.ar      1 UNK        -0.0383 
      9 C9         -8.2788   -5.1945   37.6086 C.ar      1 UNK         0.0850 
     10 C10        -7.2927   -3.1465   38.5549 C.ar      1 UNK         0.0850 
     11 C11        -8.0744   -3.7951   37.5725 C.ar      1 UNK         0.0850 
     12 C12        -5.3342   -8.9504   38.5849 C.ar      1 UNK         0.1525 
     13 C13        -6.1913   -6.1222   40.6961 C.2       1 UNK         0.6150 
     14 C14        -5.2601   -8.2578   41.4206 C.3       1 UNK        -0.0500 
     15 C15        -6.2534   -9.4098   41.2497 C.3       1 UNK         0.0475 
     16 C16        -9.2506   -7.1603   36.6185 C.3       1 UNK         0.1100 
     17 C17        -6.4277   -1.0930   39.4588 C.3       1 UNK         0.1100 
     18 C18        -7.9714   -3.1015   35.3504 C.3       1 UNK         0.1100 
     19 N19        -5.5041   -7.2543   40.3764 N.am      1 UNK        -0.0317 
     20 O20        -6.2886   -5.7065   41.8513 O.2       1 UNK        -0.5000 
     21 O21        -9.0731   -5.7514   36.6269 O.3       1 UNK        -0.2850 
     22 O22        -7.1576   -1.7773   38.4520 O.3       1 UNK        -0.2850 
     23 O23        -8.6586   -3.0397   36.5885 O.3       1 UNK        -0.2850 
     24 S24        -6.0473  -10.1895   39.6280 S.3       1 UNK        -0.3200 
     25 H25        -3.6659   -6.3388   36.2173 H         1 UNK         0.1150 
     26 H26        -4.0954   -8.6540   35.4112 H         1 UNK         0.1150 
     27 H27        -4.2919   -5.6843   38.5108 H         1 UNK         0.1150 
     28 H28        -5.1418  -10.3216   36.9280 H         1 UNK         0.1150 
     29 H29        -7.8129   -7.0149   38.7054 H         1 UNK         0.1150 
     30 H30        -6.0805   -3.4648   40.3399 H         1 UNK         0.1150 
     31 H31        -5.3333   -7.8543   42.4320 H         1 UNK         0.0600 
     32 H32        -4.2380   -8.6271   41.3281 H         1 UNK         0.0600 
     33 H33        -6.1101  -10.1627   42.0253 H         1 UNK         0.0600 
     34 H34        -7.2779   -9.0470   41.3430 H         1 UNK         0.0600 
     35 H35        -9.8716   -7.4391   35.7673 H         1 UNK         0.0300 
     36 H36        -9.7572   -7.5032   37.5216 H         1 UNK         0.0300 
     37 H37        -8.2979   -7.6824   36.5163 H         1 UNK         0.0300 
     38 H38        -6.4468   -0.0231   39.2515 H         1 UNK         0.0300 
     39 H39        -5.3831   -1.4063   39.4755 H         1 UNK         0.0300 
     40 H40        -6.8684   -1.2453   40.4451 H         1 UNK         0.0300 
     41 H41        -8.4664   -2.4545   34.6265 H         1 UNK         0.0300 
     42 H42        -7.9598   -4.1123   34.9416 H         1 UNK         0.0300 
     43 H43        -6.9416   -2.7576   35.4584 H         1 UNK         0.0300 
@<TRIPOS>BOND
     1    1    2 ar   
     2    1    3 ar   
     3    1   25 1    
     4    2    4 ar   
     5    2   26 1    
     6    3    8 ar   
     7    3   27 1    
     8    4   12 ar   
     9    4   28 1    
    10    5    7 ar   
    11    5    9 ar   
    12    5   29 1    
    13    6    7 ar   
    14    6   10 ar   
    15    6   30 1    
    16    7   13 1    
    17    8   12 ar   
    18    8   19 1    
    19    9   11 ar   
    20    9   21 1    
    21   10   11 ar   
    22   10   22 1    
    23   11   23 1    
    24   12   24 1    
    25   13   19 am   BACKBONE|DICT|INTERRES
    26   13   20 2    
    27   14   15 1    
    28   14   19 1    
    29   14   31 1    
    30   14   32 1    
    31   15   24 1    
    32   15   33 1    
    33   15   34 1    
    34   16   21 1    
    35   16   35 1    
    36   16   36 1    
    37   16   37 1    
    38   17   22 1    
    39   17   38 1    
    40   17   39 1    
    41   17   40 1    
    42   18   23 1    
    43   18   41 1    
    44   18   42 1    
    45   18   43 1    
@<TRIPOS>SUBSTRUCTURE
     1 UNK         1 GROUP             0       ****    0 ROOT    
@<TRIPOS>MOLECULE
ZINC57486318_64
44   46    1
SMALL
USER_CHARGES


@<TRIPOS>ATOM
      1 C1        -15.9990  -26.9314   38.0070 C.ar      1 UNK        -0.1150 
      2 C2        -14.7317  -26.3368   37.8683 C.ar      1 UNK        -0.1150 
      3 C3        -17.1306  -26.1273   38.2421 C.ar      1 UNK        -0.1150 
      4 C4        -21.6510  -18.5261   37.9212 C.ar      1 UNK        -0.1150 
      5 C5        -22.4739  -17.3932   37.8070 C.ar      1 UNK        -0.1150 
      6 C6        -14.5947  -24.9393   37.9717 C.ar      1 UNK        -0.1150 
      7 C7        -19.8881  -17.1223   38.8248 C.ar      1 UNK        -0.1150 
      8 C8        -16.9990  -24.7205   38.3289 C.ar      1 UNK         0.0631 
      9 C9        -20.3346  -18.3948   38.4085 C.ar      1 UNK        -0.1150 
     10 C10       -22.0229  -16.1121   38.1807 C.ar      1 UNK         0.0850 
     11 C11       -20.7078  -15.9675   38.7186 C.ar      1 UNK         0.0850 
     12 C12       -15.7145  -24.1151   38.2073 C.ar      1 UNK         0.2000 
     13 C13       -19.3328  -24.4659   39.3840 C.ar      1 UNK        -0.2947 
     14 C14       -20.4686  -23.7433   39.5168 C.ar      1 UNK        -0.1717 
     15 C15       -18.2384  -23.9386   38.5778 C.ar      1 UNK         0.3933 
     16 C16       -20.6308  -22.4405   38.8779 C.ar      1 UNK         0.5567 
     17 C17       -19.4246  -19.5647   38.5699 C.2       1 UNK         0.5850 
     18 C18       -22.5857  -13.7466   38.1228 C.3       1 UNK         0.1100 
     19 C19       -18.9906  -14.6079   39.7446 C.3       1 UNK         0.1100 
     20 C20       -19.5106  -20.7102   37.5416 C.3       1 UNK         0.0800 
     21 N21       -18.3810  -22.7862   38.0062 N.2       1 UNK        -0.2833 
     22 N22       -19.5293  -22.0294   38.1891 N.pl3     1 UNK        -0.1934 
     23 O23       -21.6606  -21.7738   38.9371 O.2       1 UNK        -0.5000 
     24 O24       -18.5520  -19.6037   39.4392 O.2       1 UNK        -0.4700 
     25 O25       -22.9555  -15.1097   37.9913 O.3       1 UNK        -0.2850 
     26 O26       -20.2659  -14.7250   39.1295 O.3       1 UNK        -0.2850 
     27 Br27      -15.3733  -22.2446   38.4042 Br        1 UNK        -0.2000 
     28 H28       -16.1037  -28.0047   37.9298 H         1 UNK         0.1150 
     29 H29       -13.8611  -26.9523   37.6894 H         1 UNK         0.1150 
     30 H30       -18.0967  -26.6034   38.3283 H         1 UNK         0.1150 
     31 H31       -22.0603  -19.4891   37.6521 H         1 UNK         0.1150 
     32 H32       -23.4796  -17.5060   37.4294 H         1 UNK         0.1150 
     33 H33       -13.6165  -24.4895   37.8814 H         1 UNK         0.1150 
     34 H34       -18.8883  -17.0585   39.2272 H         1 UNK         0.1150 
     35 H35       -19.2322  -25.4145   39.8885 H         1 UNK         0.1150 
     36 H36       -21.2800  -24.1219   40.1198 H         1 UNK         0.1150 
     37 H37       -22.3886  -13.4855   39.1629 H         1 UNK         0.0300 
     38 H38       -23.4117  -13.1212   37.7846 H         1 UNK         0.0300 
     39 H39       -21.7201  -13.5014   37.5062 H         1 UNK         0.0300 
     40 H40       -18.8282  -13.5706   40.0373 H         1 UNK         0.0300 
     41 H41       -18.9252  -15.2170   40.6476 H         1 UNK         0.0300 
     42 H42       -18.1885  -14.8838   39.0587 H         1 UNK         0.0300 
     43 H43       -20.3706  -20.6115   36.8819 H         1 UNK         0.0600 
     44 H44       -18.6385  -20.6216   36.8930 H         1 UNK         0.0600 
@<TRIPOS>BOND
     1    1    2 ar   
     2    1    3 ar   
     3    1   28 1    
     4    2    6 ar   
     5    2   29 1    
     6    3    8 ar   
     7    3   30 1    
     8    4    5 ar   
     9    4    9 ar   
    10    4   31 1    
    11    5   10 ar   
    12    5   32 1    
    13    6   12 ar   
    14    6   33 1    
    15    7    9 ar   
    16    7   11 ar   
    17    7   34 1    
    18    8   12 ar   
    19    8   15 1    
    20    9   17 1    
    21   10   11 ar   
    22   10   25 1    
    23   11   26 1    
    24   12   27 1    
    25   13   14 ar   
    26   13   15 ar   
    27   13   35 1    
    28   14   16 ar   
    29   14   36 1    
    30   15   21 ar   
    31   16   22 ar   
    32   16   23 2    
    33   17   20 1    
    34   17   24 2    
    35   18   25 1    
    36   18   37 1    
    37   18   38 1    
    38   18   39 1    
    39   19   26 1    
    40   19   40 1    
    41   19   41 1    
    42   19   42 1    
    43   20   22 1    
    44   20   43 1    
    45   20   44 1    
    46   21   22 ar   
@<TRIPOS>SUBSTRUCTURE
     1 UNK         1 GROUP             0       ****    0 ROOT    
@<TRIPOS>MOLECULE
ZINC58283829_231
48   50    1
SMALL
USER_CHARGES


@<TRIPOS>ATOM
      1 C1         -5.6410  -11.3822   37.2686 C.ar      1 UNK        -0.1150 
      2 C2         -5.2774  -12.0345   36.0760 C.ar      1 UNK        -0.1150 
      3 C3         -3.9430  -10.1015   35.4356 C.ar      1 UNK        -0.1150 
      4 C4         -6.1394   -8.9310   41.1467 C.2       1 UNK        -0.3376 
      5 C5         -5.1610  -10.0862   37.5604 C.ar      1 UNK         0.0000 
      6 C6         -4.4248  -11.3954   35.1564 C.ar      1 UNK        -0.1150 
      7 C7         -4.2999   -9.4415   36.6314 C.ar      1 UNK        -0.1150 
      8 C8         -6.3528   -7.8841   40.2831 C.2       1 UNK         0.1693 
      9 C9         -5.5730   -9.4563   38.8157 C.2       1 UNK         0.3009 
     10 C10        -6.7784   -6.5244   40.7501 C.2       1 UNK         0.6150 
     11 C11        -8.9674   -2.8098   37.7683 C.2       1 UNK         0.5000 
     12 C12        -7.8881   -5.9408   37.5439 C.3       1 UNK        -0.1200 
     13 C13        -8.5000   -6.3846   38.8993 C.3       1 UNK        -0.0500 
     14 C14        -7.1958   -4.5572   37.5286 C.3       1 UNK        -0.0500 
     15 C15        -8.2367   -4.5486   40.5157 C.3       1 UNK        -0.0500 
     16 C16        -7.5577   -3.4398   39.6942 C.3       1 UNK        -0.0500 
     17 C17        -4.0297  -12.0952   33.8724 C.3       1 UNK        -0.0650 
     18 C18        -3.7304   -8.0564   36.8931 C.3       1 UNK        -0.0650 
     19 C19        -9.3054   -2.9310   36.2834 C.3       1 UNK        -0.1800 
     20 N20        -5.9919   -8.1963   38.9657 N.2       1 UNK        -0.4803 
     21 N21        -7.7658   -5.8756   40.0741 N.am      1 UNK        -0.1400 
     22 N22        -7.9510   -3.5442   38.2808 N.am      1 UNK        -0.1400 
     23 O23        -6.2681   -6.0553   41.7690 O.2       1 UNK        -0.5000 
     24 O24        -9.6348   -2.0363   38.4525 O.2       1 UNK        -0.5000 
     25 S25        -5.5635  -10.3577   40.3296 S.3       1 UNK         0.0010 
     26 H26        -6.3015  -11.8826   37.9615 H         1 UNK         0.1150 
     27 H27        -5.6569  -13.0253   35.8711 H         1 UNK         0.1150 
     28 H28        -3.2890   -9.6134   34.7271 H         1 UNK         0.1150 
     29 H29        -6.2809   -8.9286   42.2175 H         1 UNK         0.2317 
     30 H30        -7.1652   -6.6817   37.2038 H         1 UNK         0.0600 
     31 H31        -8.6771   -5.9663   36.7924 H         1 UNK         0.0600 
     32 H32        -9.5303   -6.0295   38.9398 H         1 UNK         0.0600 
     33 H33        -8.5994   -7.4704   38.9295 H         1 UNK         0.0600 
     34 H34        -6.1989   -4.6654   37.9583 H         1 UNK         0.0600 
     35 H35        -7.0112   -4.2393   36.5022 H         1 UNK         0.0600 
     36 H36        -8.0343   -4.3834   41.5755 H         1 UNK         0.0600 
     37 H37        -9.3213   -4.4661   40.4337 H         1 UNK         0.0600 
     38 H38        -7.8306   -2.4659   40.1050 H         1 UNK         0.0600 
     39 H39        -6.4737   -3.4932   39.8036 H         1 UNK         0.0600 
     40 H40        -4.7703  -11.9032   33.0958 H         1 UNK         0.0600 
     41 H41        -3.0605  -11.7431   33.5174 H         1 UNK         0.0600 
     42 H42        -3.9601  -13.1728   34.0235 H         1 UNK         0.0600 
     43 H43        -4.5095   -7.3009   36.7888 H         1 UNK         0.0600 
     44 H44        -3.3189   -7.9917   37.9007 H         1 UNK         0.0600 
     45 H45        -2.9302   -7.8135   36.1939 H         1 UNK         0.0600 
     46 H46        -9.5693   -3.9546   36.0232 H         1 UNK         0.0600 
     47 H47        -8.4651   -2.6083   35.6698 H         1 UNK         0.0600 
     48 H48       -10.1579   -2.2964   36.0403 H         1 UNK         0.0600 
@<TRIPOS>BOND
     1    1    2 ar   
     2    1    5 ar   
     3    1   26 1    
     4    2    6 ar   
     5    2   27 1    
     6    3    6 ar   
     7    3    7 ar   
     8    3   28 1    
     9    4    8 2    
    10    4   25 1    
    11    4   29 1    
    12    5    7 ar   
    13    5    9 1    
    14    6   17 1    
    15    7   18 1    
    16    8   10 1    
    17    8   20 1    
    18    9   20 2    
    19    9   25 1    
    20   10   21 am   BACKBONE|DICT|INTERRES
    21   10   23 2    
    22   11   19 1    
    23   11   22 am   BACKBONE|DICT|INTERRES
    24   11   24 2    
    25   12   13 1    
    26   12   14 1    
    27   12   30 1    
    28   12   31 1    
    29   13   21 1    
    30   13   32 1    
    31   13   33 1    
    32   14   22 1    
    33   14   34 1    
    34   14   35 1    
    35   15   16 1    
    36   15   21 1    
    37   15   36 1    
    38   15   37 1    
    39   16   22 1    
    40   16   38 1    
    41   16   39 1    
    42   17   40 1    
    43   17   41 1    
    44   17   42 1    
    45   18   43 1    
    46   18   44 1    
    47   18   45 1    
    48   19   46 1    
    49   19   47 1    
    50   19   48 1    
@<TRIPOS>SUBSTRUCTURE
     1 UNK         1 GROUP             0       ****    0 ROOT    
@<TRIPOS>MOLECULE
ZINC58308366_15
44   46    1
SMALL
USER_CHARGES


@<TRIPOS>ATOM
      1 C1         -4.4643   -7.3784   36.7990 C.ar      1 UNK        -0.4470 
      2 C2         -4.7987   -6.8656   38.0637 C.ar      1 UNK         0.2270 
      3 C3         -7.7791   -5.9077   38.6646 C.ar      1 UNK        -0.1150 
      4 C4         -6.6741   -3.9118   39.5212 C.ar      1 UNK        -0.1150 
      5 C5         -4.6071   -8.7564   36.5713 C.ar      1 UNK         0.4730 
      6 C6         -6.8947   -5.3029   39.5844 C.ar      1 UNK        -0.1150 
      7 C7         -5.2890   -7.7455   39.0584 C.ar      1 UNK        -0.2070 
      8 C8         -8.3905   -5.1468   37.6406 C.ar      1 UNK         0.0850 
      9 C9         -7.2890   -3.1271   38.5167 C.ar      1 UNK         0.0850 
     10 C10        -8.1333   -3.7580   37.5759 C.ar      1 UNK         0.0850 
     11 C11        -5.3503   -9.1167   38.7288 C.ar      1 UNK         0.3700 
     12 C12        -6.2392   -6.1099   40.6735 C.2       1 UNK         0.6150 
     13 C13        -5.7167  -10.1237   39.7934 C.3       1 UNK        -0.0050 
     14 C14        -5.0947   -9.6826   41.1201 C.3       1 UNK        -0.1200 
     15 C15        -5.5349   -8.2570   41.5116 C.3       1 UNK        -0.0500 
     16 C16        -9.4576   -7.0863   36.6997 C.3       1 UNK         0.1100 
     17 C17        -6.3415   -1.0918   39.3759 C.3       1 UNK         0.1100 
     18 C18        -8.0254   -3.0234   35.3711 C.3       1 UNK         0.1100 
     19 N19        -5.0312   -9.6139   37.5186 N.ar      1 UNK        -0.6780 
     20 N20        -5.6703   -7.3130   40.3784 N.am      1 UNK        -0.1550 
     21 O21        -6.2226   -5.6409   41.8112 O.2       1 UNK        -0.5000 
     22 O22        -9.2314   -5.6848   36.6879 O.3       1 UNK        -0.2850 
     23 O23        -7.1039   -1.7662   38.3866 O.3       1 UNK        -0.2850 
     24 O24        -8.7279   -2.9995   36.6013 O.3       1 UNK        -0.2850 
     25 H25        -4.1019   -6.7289   36.0162 H         1 UNK         0.1550 
     26 H26        -4.6749   -5.8095   38.2519 H         1 UNK         0.0650 
     27 H27        -7.9635   -6.9670   38.7553 H         1 UNK         0.1150 
     28 H28        -6.0218   -3.4685   40.2588 H         1 UNK         0.1150 
     29 H29        -4.3597   -9.1832   35.6105 H         1 UNK         0.0120 
     30 H30        -6.8026  -10.1782   39.8726 H         1 UNK         0.0600 
     31 H31        -5.3596  -11.1166   39.5166 H         1 UNK         0.0600 
     32 H32        -5.3413  -10.3878   41.9143 H         1 UNK         0.0600 
     33 H33        -4.0085   -9.7038   41.0183 H         1 UNK         0.0600 
     34 H34        -6.5013   -8.3281   42.0164 H         1 UNK         0.0600 
     35 H35        -4.8390   -7.8519   42.2494 H         1 UNK         0.0600 
     36 H36       -10.1114   -7.3516   35.8691 H         1 UNK         0.0300 
     37 H37        -9.9508   -7.4023   37.6199 H         1 UNK         0.0300 
     38 H38        -8.5272   -7.6430   36.5771 H         1 UNK         0.0300 
     39 H39        -6.3397   -0.0233   39.1609 H         1 UNK         0.0300 
     40 H40        -5.3045   -1.4299   39.3778 H         1 UNK         0.0300 
     41 H41        -6.7692   -1.2265   40.3705 H         1 UNK         0.0300 
     42 H42        -8.5321   -2.3832   34.6493 H         1 UNK         0.0300 
     43 H43        -7.9821   -4.0304   34.9544 H         1 UNK         0.0300 
     44 H44        -7.0074   -2.6509   35.4938 H         1 UNK         0.0300 
@<TRIPOS>BOND
     1    1    2 ar   
     2    1    5 ar   
     3    1   25 1    
     4    2    7 ar   
     5    2   26 1    
     6    3    6 ar   
     7    3    8 ar   
     8    3   27 1    
     9    4    6 ar   
    10    4    9 ar   
    11    4   28 1    
    12    5   19 ar   
    13    5   29 1    
    14    6   12 1    
    15    7   11 ar   
    16    7   20 1    
    17    8   10 ar   
    18    8   22 1    
    19    9   10 ar   
    20    9   23 1    
    21   10   24 1    
    22   11   13 1    
    23   11   19 ar   
    24   12   20 am   BACKBONE|DICT|INTERRES
    25   12   21 2    
    26   13   14 1    
    27   13   30 1    
    28   13   31 1    
    29   14   15 1    
    30   14   32 1    
    31   14   33 1    
    32   15   20 1    
    33   15   34 1    
    34   15   35 1    
    35   16   22 1    
    36   16   36 1    
    37   16   37 1    
    38   16   38 1    
    39   17   23 1    
    40   17   39 1    
    41   17   40 1    
    42   17   41 1    
    43   18   24 1    
    44   18   42 1    
    45   18   43 1    
    46   18   44 1    
@<TRIPOS>SUBSTRUCTURE
     1 UNK         1 GROUP             0       ****    0 ROOT    
@<TRIPOS>MOLECULE
ZINC58325136_2
45   47    1
SMALL
USER_CHARGES


@<TRIPOS>ATOM
      1 C1        -10.1595  -16.8437   37.9309 C.ar      1 UNK        -0.1150 
      2 C2         -9.9680  -17.7500   36.8718 C.ar      1 UNK        -0.1150 
      3 C3         -8.8627  -16.0024   35.5861 C.ar      1 UNK        -0.1150 
      4 C4        -10.1544  -13.5559   41.1693 C.2       1 UNK        -0.3376 
      5 C5         -9.7075  -15.5094   37.8312 C.ar      1 UNK         0.0000 
      6 C6         -9.3199  -17.3307   35.6952 C.ar      1 UNK        -0.1150 
      7 C7         -9.0480  -15.0876   36.6453 C.ar      1 UNK        -0.1150 
      8 C8        -10.5939  -12.7605   40.1394 C.2       1 UNK         0.1693 
      9 C9         -9.9437  -14.6076   38.9587 C.2       1 UNK         0.3009 
     10 C10       -11.0579  -11.3493   40.3349 C.2       1 UNK         0.6150 
     11 C11       -14.2912   -9.4632   36.4545 C.2       1 UNK         0.5000 
     12 C12       -13.0848  -11.7633   38.8747 C.3       1 UNK        -0.0500 
     13 C13       -12.5060   -9.5080   39.5294 C.3       1 UNK        -0.0500 
     14 C14       -12.9704  -11.3870   37.3854 C.3       1 UNK        -0.0500 
     15 C15       -12.4282   -9.0905   38.0447 C.3       1 UNK        -0.0500 
     16 C16        -9.1179  -18.3093   34.5566 C.3       1 UNK        -0.0650 
     17 C17        -8.5170  -13.6722   36.4848 C.3       1 UNK        -0.0650 
     18 C18       -15.1551  -10.4197   35.6350 C.3       1 UNK        -0.1800 
     19 N19       -10.4331  -13.3662   38.8842 N.2       1 UNK        -0.4803 
     20 N20       -12.1464  -10.9287   39.6401 N.am      1 UNK        -0.1400 
     21 N21       -13.2959   -9.9587   37.2288 N.am      1 UNK        -0.1400 
     22 O22       -10.4581  -10.6147   41.1208 O.2       1 UNK        -0.5000 
     23 O23       -14.5353   -8.2607   36.3788 O.2       1 UNK        -0.5000 
     24 S24        -9.6064  -15.1135   40.6128 S.3       1 UNK         0.0010 
     25 H25       -10.6664  -17.1774   38.8244 H         1 UNK         0.1150 
     26 H26       -10.3225  -18.7665   36.9657 H         1 UNK         0.1150 
     27 H27        -8.3626  -15.6825   34.6832 H         1 UNK         0.1150 
     28 H28       -10.1177  -13.3004   42.2180 H         1 UNK         0.2317 
     29 H29       -14.0994  -11.5764   39.2302 H         1 UNK         0.0600 
     30 H30       -12.9335  -12.8327   39.0155 H         1 UNK         0.0600 
     31 H31       -11.8529   -8.8626   40.1194 H         1 UNK         0.0600 
     32 H32       -13.5129   -9.3519   39.9189 H         1 UNK         0.0600 
     33 H33       -11.9551  -11.5651   37.0265 H         1 UNK         0.0600 
     34 H34       -13.6087  -12.0490   36.8025 H         1 UNK         0.0600 
     35 H35       -12.6894   -8.0344   37.9566 H         1 UNK         0.0600 
     36 H36       -11.4031   -9.1741   37.6806 H         1 UNK         0.0600 
     37 H37       -10.0814  -18.6482   34.1749 H         1 UNK         0.0600 
     38 H38        -8.5667  -17.8559   33.7325 H         1 UNK         0.0600 
     39 H39        -8.5582  -19.1795   34.9003 H         1 UNK         0.0600 
     40 H40        -9.3417  -12.9724   36.3477 H         1 UNK         0.0600 
     41 H41        -7.9501  -13.3693   37.3656 H         1 UNK         0.0600 
     42 H42        -7.8568  -13.5878   35.6217 H         1 UNK         0.0600 
     43 H43       -15.6904  -11.1108   36.2857 H         1 UNK         0.0600 
     44 H44       -14.5446  -10.9842   34.9307 H         1 UNK         0.0600 
     45 H45       -15.8946   -9.8607   35.0614 H         1 UNK         0.0600 
@<TRIPOS>BOND
     1    1    2 ar   
     2    1    5 ar   
     3    1   25 1    
     4    2    6 ar   
     5    2   26 1    
     6    3    6 ar   
     7    3    7 ar   
     8    3   27 1    
     9    4    8 2    
    10    4   24 1    
    11    4   28 1    
    12    5    7 ar   
    13    5    9 1    
    14    6   16 1    
    15    7   17 1    
    16    8   10 1    
    17    8   19 1    
    18    9   19 2    
    19    9   24 1    
    20   10   20 am   BACKBONE|DICT|INTERRES
    21   10   22 2    
    22   11   18 1    
    23   11   21 am   BACKBONE|DICT|INTERRES
    24   11   23 2    
    25   12   14 1    
    26   12   20 1    
    27   12   29 1    
    28   12   30 1    
    29   13   15 1    
    30   13   20 1    
    31   13   31 1    
    32   13   32 1    
    33   14   21 1    
    34   14   33 1    
    35   14   34 1    
    36   15   21 1    
    37   15   35 1    
    38   15   36 1    
    39   16   37 1    
    40   16   38 1    
    41   16   39 1    
    42   17   40 1    
    43   17   41 1    
    44   17   42 1    
    45   18   43 1    
    46   18   44 1    
    47   18   45 1    
@<TRIPOS>SUBSTRUCTURE
     1 UNK         1 GROUP             0       ****    0 ROOT    
@<TRIPOS>MOLECULE
ZINC59942137_159
42   43    1
SMALL
USER_CHARGES


@<TRIPOS>ATOM
      1 C1         -8.8353  -12.7590   36.4734 C.ar      1 UNK        -0.1150 
      2 C2         -7.6486  -14.5435   37.6330 C.ar      1 UNK        -0.1150 
      3 C3         -8.7273  -13.4749   35.2651 C.ar      1 UNK        -0.1150 
      4 C4         -7.5405  -15.2574   36.4235 C.ar      1 UNK        -0.1150 
      5 C5        -10.3289   -7.3823   39.2543 C.ar      1 UNK        -0.1150 
      6 C6        -11.2768   -9.4877   38.5071 C.ar      1 UNK        -0.1150 
      7 C7        -10.4543   -8.7769   39.4036 C.ar      1 UNK        -0.1150 
      8 C8         -8.2914  -13.2883   37.6676 C.ar      1 UNK         0.2000 
      9 C9        -10.9876   -6.6831   38.2114 C.ar      1 UNK         0.0850 
     10 C10       -11.9395   -8.8227   37.4505 C.ar      1 UNK         0.0850 
     11 C11       -11.7933   -7.4234   37.2912 C.ar      1 UNK         0.0850 
     12 C12        -8.0793  -14.7228   35.2396 C.ar      1 UNK         0.2200 
     13 C13        -9.2122  -10.8359   40.3185 C.2       1 UNK        -0.1150 
     14 C14        -8.8567  -11.3361   39.1189 C.2       1 UNK        -0.0970 
     15 C15        -9.7204   -9.4583   40.5117 C.2       1 UNK         0.5850 
     16 C16       -10.0844   -4.5830   39.0111 C.3       1 UNK         0.1100 
     17 C17       -12.9259  -10.8783   36.6624 C.3       1 UNK         0.1100 
     18 C18       -12.3000   -5.5588   35.8000 C.3       1 UNK         0.1100 
     19 N19        -8.3780  -12.6195   38.8959 N.pl3     1 UNK        -0.5717 
     20 O20        -9.5071   -8.8753   41.5734 O.2       1 UNK        -0.4700 
     21 O21       -10.8688   -5.3130   38.0775 O.3       1 UNK        -0.2850 
     22 O22       -12.7395   -9.4767   36.5341 O.3       1 UNK        -0.2850 
     23 O23       -12.4916   -6.9002   36.2159 O.3       1 UNK        -0.2850 
     24 F24        -7.9769  -15.4095   34.0787 F         1 UNK        -0.2200 
     25 H25        -9.3475  -11.8097   36.4589 H         1 UNK         0.1150 
     26 H26        -7.2268  -14.9684   38.5317 H         1 UNK         0.1150 
     27 H27        -9.1425  -13.0692   34.3546 H         1 UNK         0.1150 
     28 H28        -7.0447  -16.2161   36.3994 H         1 UNK         0.1150 
     29 H29        -9.7059   -6.8641   39.9675 H         1 UNK         0.1150 
     30 H30       -11.3936  -10.5509   38.6472 H         1 UNK         0.1150 
     31 H31        -9.1194  -11.4373   41.2101 H         1 UNK         0.1150 
     32 H32        -8.9141  -10.7262   38.2289 H         1 UNK         0.1150 
     33 H33       -10.1171   -3.5243   38.7544 H         1 UNK         0.0300 
     34 H34        -9.0391   -4.8936   38.9847 H         1 UNK         0.0300 
     35 H35       -10.4707   -4.6859   40.0261 H         1 UNK         0.0300 
     36 H36       -13.5815  -11.2267   35.8644 H         1 UNK         0.0300 
     37 H37       -13.3997  -11.1323   37.6116 H         1 UNK         0.0300 
     38 H38       -11.9820  -11.4174   36.5709 H         1 UNK         0.0300 
     39 H39       -12.8322   -5.4009   34.8623 H         1 UNK         0.0300 
     40 H40       -11.2479   -5.3383   35.6160 H         1 UNK         0.0300 
     41 H41       -12.7090   -4.8542   36.5245 H         1 UNK         0.0300 
     42 H42        -8.0945  -13.1582   39.7031 H         1 UNK         0.3537 
@<TRIPOS>BOND
     1    1    3 ar   
     2    1    8 ar   
     3    1   25 1    
     4    2    4 ar   
     5    2    8 ar   
     6    2   26 1    
     7    3   12 ar   
     8    3   27 1    
     9    4   12 ar   
    10    4   28 1    
    11    5    7 ar   
    12    5    9 ar   
    13    5   29 1    
    14    6    7 ar   
    15    6   10 ar   
    16    6   30 1    
    17    7   15 1    
    18    8   19 1    
    19    9   11 ar   
    20    9   21 1    
    21   10   11 ar   
    22   10   22 1    
    23   11   23 1    
    24   12   24 1    
    25   13   14 2    
    26   13   15 1    
    27   13   31 1    
    28   14   19 1    
    29   14   32 1    
    30   15   20 2    
    31   16   21 1    
    32   16   33 1    
    33   16   34 1    
    34   16   35 1    
    35   17   22 1    
    36   17   36 1    
    37   17   37 1    
    38   17   38 1    
    39   18   23 1    
    40   18   39 1    
    41   18   40 1    
    42   18   41 1    
    43   19   42 1    
@<TRIPOS>SUBSTRUCTURE
     1 UNK         1 GROUP             0       ****    0 ROOT    
@<TRIPOS>MOLECULE
ZINC60390264_59
43   44    1
SMALL
USER_CHARGES


@<TRIPOS>ATOM
      1 C1         -6.8346   -3.7493   39.4665 C.ar      1 UNK        -0.1150 
      2 C2         -7.7056   -5.7970   38.4719 C.ar      1 UNK        -0.1150 
      3 C3         -6.8724   -5.1597   39.4206 C.ar      1 UNK        -0.1150 
      4 C4         -7.6202   -2.9717   38.5825 C.ar      1 UNK         0.0850 
      5 C5         -8.4955   -5.0387   37.5747 C.ar      1 UNK         0.0850 
      6 C6         -8.4414   -3.6274   37.6393 C.ar      1 UNK         0.0850 
      7 C7         -6.0308   -5.9383   40.3729 C.2       1 UNK         0.6250 
      8 C8         -5.4876  -10.6964   39.4961 C.3       1 UNK        -0.1200 
      9 C9         -6.7640  -10.2159   40.2055 C.3       1 UNK        -0.1200 
     10 C10        -4.5784   -9.5123   39.1287 C.3       1 UNK        -0.1200 
     11 C11        -6.4315   -9.3635   41.4436 C.3       1 UNK        -0.1200 
     12 C12        -4.2399   -8.6612   40.3658 C.3       1 UNK        -0.1200 
     13 C13        -5.5079   -8.1794   41.1002 C.3       1 UNK         0.2200 
     14 C14        -6.8591   -0.9056   39.5504 C.3       1 UNK         0.1100 
     15 C15        -9.4103   -7.0132   36.5449 C.3       1 UNK         0.1100 
     16 C16        -8.6420   -2.7268   35.5010 C.3       1 UNK         0.1100 
     17 O17        -5.2377   -5.4187   41.1596 O.2       1 UNK        -0.4300 
     18 O18        -7.6284   -1.5917   38.5746 O.3       1 UNK        -0.2850 
     19 O19        -9.3291   -5.5987   36.6275 O.3       1 UNK        -0.2850 
     20 O20        -9.2102   -2.8726   36.7910 O.3       1 UNK        -0.2850 
     21 O21        -6.2298   -7.2691   40.2790 O.3       1 UNK        -0.3300 
     22 H22        -6.1915   -3.2781   40.1945 H         1 UNK         0.1150 
     23 H23        -7.7315   -6.8748   38.4394 H         1 UNK         0.1150 
     24 H24        -4.9457  -11.3894   40.1416 H         1 UNK         0.0600 
     25 H25        -5.7504  -11.2566   38.5977 H         1 UNK         0.0600 
     26 H26        -7.3704   -9.6322   39.5112 H         1 UNK         0.0600 
     27 H27        -7.3723  -11.0727   40.4974 H         1 UNK         0.0600 
     28 H28        -3.6604   -9.8769   38.6665 H         1 UNK         0.0600 
     29 H29        -5.0722   -8.8904   38.3808 H         1 UNK         0.0600 
     30 H30        -7.3495   -8.9988   41.9061 H         1 UNK         0.0600 
     31 H31        -5.9438   -9.9908   42.1906 H         1 UNK         0.0600 
     32 H32        -3.6338   -9.2525   41.0530 H         1 UNK         0.0600 
     33 H33        -3.6241   -7.8081   40.0785 H         1 UNK         0.0600 
     34 H34        -5.2218   -7.6934   42.0346 H         1 UNK         0.0300 
     35 H35        -6.9969    0.1683   39.4250 H         1 UNK         0.0300 
     36 H36        -5.7946   -1.1159   39.4402 H         1 UNK         0.0300 
     37 H37        -7.1771   -1.1626   40.5618 H         1 UNK         0.0300 
     38 H38       -10.1079   -7.2859   35.7531 H         1 UNK         0.0300 
     39 H39        -9.7817   -7.4469   37.4743 H         1 UNK         0.0300 
     40 H40        -8.4437   -7.4549   36.2986 H         1 UNK         0.0300 
     41 H41        -9.2810   -2.0875   34.8922 H         1 UNK         0.0300 
     42 H42        -8.5450   -3.6859   34.9915 H         1 UNK         0.0300 
     43 H43        -7.6572   -2.2608   35.5581 H         1 UNK         0.0300 
@<TRIPOS>BOND
     1    1    3 ar   
     2    1    4 ar   
     3    1   22 1    
     4    2    3 ar   
     5    2    5 ar   
     6    2   23 1    
     7    3    7 1    
     8    4    6 ar   
     9    4   18 1    
    10    5    6 ar   
    11    5   19 1    
    12    6   20 1    
    13    7   17 2    
    14    7   21 1    
    15    8    9 1    
    16    8   10 1    
    17    8   24 1    
    18    8   25 1    
    19    9   11 1    
    20    9   26 1    
    21    9   27 1    
    22   10   12 1    
    23   10   28 1    
    24   10   29 1    
    25   11   13 1    
    26   11   30 1    
    27   11   31 1    
    28   12   13 1    
    29   12   32 1    
    30   12   33 1    
    31   13   21 1    
    32   13   34 1    
    33   14   18 1    
    34   14   35 1    
    35   14   36 1    
    36   14   37 1    
    37   15   19 1    
    38   15   38 1    
    39   15   39 1    
    40   15   40 1    
    41   16   20 1    
    42   16   41 1    
    43   16   42 1    
    44   16   43 1    
@<TRIPOS>SUBSTRUCTURE
     1 UNK         1 GROUP             0       ****    0 ROOT    
@<TRIPOS>MOLECULE
ZINC60599062_20
45   47    1
SMALL
USER_CHARGES


@<TRIPOS>ATOM
      1 C1         -4.5321   -9.4476   36.9331 C.ar      1 UNK        -0.1150 
      2 C2         -4.7644   -8.0608   36.7878 C.ar      1 UNK        -0.1150 
      3 C3         -4.7392  -10.0786   38.1779 C.ar      1 UNK        -0.1150 
      4 C4         -5.2223   -7.2905   37.8787 C.ar      1 UNK        -0.1150 
      5 C5         -7.9175   -5.8823   38.6015 C.ar      1 UNK        -0.1150 
      6 C6         -6.7188   -3.9719   39.5255 C.ar      1 UNK        -0.1150 
      7 C7         -7.0216   -5.3483   39.5535 C.ar      1 UNK        -0.1150 
      8 C8         -5.1959   -9.2971   39.2543 C.ar      1 UNK        -0.1150 
      9 C9         -5.4670   -7.9388   39.1104 C.ar      1 UNK        -0.0383 
     10 C10        -8.4564   -5.0664   37.5785 C.ar      1 UNK         0.0850 
     11 C11        -7.2630   -3.1323   38.5249 C.ar      1 UNK         0.0850 
     12 C12        -8.1166   -3.6936   37.5490 C.ar      1 UNK         0.0850 
     13 C13        -6.4575   -6.2081   40.6500 C.2       1 UNK         0.6150 
     14 C14        -5.7195   -8.4229   41.4049 C.3       1 UNK        -0.0500 
     15 C15        -5.4482   -9.7547   40.6657 C.3       1 UNK         0.0550 
     16 C16        -4.2965  -10.5696   41.2712 C.3       1 UNK        -0.1800 
     17 C17        -9.5978   -6.9238   36.5611 C.3       1 UNK         0.1100 
     18 C18        -6.2272   -1.1727   39.4562 C.3       1 UNK         0.1100 
     19 C19        -7.9632   -2.9814   35.3359 C.3       1 UNK         0.1100 
     20 N20        -5.9126   -7.4146   40.3537 N.am      1 UNK        -0.0317 
     21 O21        -6.4929   -5.7804   41.8046 O.2       1 UNK        -0.5000 
     22 O22        -9.3065   -5.5348   36.5976 O.3       1 UNK        -0.2850 
     23 O23        -6.9998   -1.7811   38.4323 O.3       1 UNK        -0.2850 
     24 O24        -8.6374   -2.8772   36.5782 O.3       1 UNK        -0.2850 
     25 H25        -4.1795  -10.0247   36.0904 H         1 UNK         0.1150 
     26 H26        -4.5830   -7.5836   35.8356 H         1 UNK         0.1150 
     27 H27        -4.5443  -11.1340   38.3002 H         1 UNK         0.1150 
     28 H28        -5.3650   -6.2285   37.7475 H         1 UNK         0.1150 
     29 H29        -8.1650   -6.9309   38.6655 H         1 UNK         0.1150 
     30 H30        -6.0619   -3.5821   40.2890 H         1 UNK         0.1150 
     31 H31        -6.5821   -8.5011   42.0688 H         1 UNK         0.0600 
     32 H32        -4.8617   -8.1203   42.0076 H         1 UNK         0.0600 
     33 H33        -6.3578  -10.3570   40.6554 H         1 UNK         0.0600 
     34 H34        -3.3634  -10.0051   41.2585 H         1 UNK         0.0600 
     35 H35        -4.1320  -11.4943   40.7182 H         1 UNK         0.0600 
     36 H36        -4.5102  -10.8393   42.3056 H         1 UNK         0.0600 
     37 H37       -10.2405   -7.1335   35.7061 H         1 UNK         0.0300 
     38 H38       -10.1297   -7.2424   37.4584 H         1 UNK         0.0300 
     39 H39        -8.6912   -7.5196   36.4449 H         1 UNK         0.0300 
     40 H40        -6.1589   -0.1017   39.2661 H         1 UNK         0.0300 
     41 H41        -5.2115   -1.5692   39.4773 H         1 UNK         0.0300 
     42 H42        -6.6884   -1.3039   40.4361 H         1 UNK         0.0300 
     43 H43        -8.3952   -2.2749   34.6277 H         1 UNK         0.0300 
     44 H44        -8.0529   -3.9805   34.9083 H         1 UNK         0.0300 
     45 H45        -6.9044   -2.7415   35.4446 H         1 UNK         0.0300 
@<TRIPOS>BOND
     1    1    2 ar   
     2    1    3 ar   
     3    1   25 1    
     4    2    4 ar   
     5    2   26 1    
     6    3    8 ar   
     7    3   27 1    
     8    4    9 ar   
     9    4   28 1    
    10    5    7 ar   
    11    5   10 ar   
    12    5   29 1    
    13    6    7 ar   
    14    6   11 ar   
    15    6   30 1    
    16    7   13 1    
    17    8    9 ar   
    18    8   15 1    
    19    9   20 1    
    20   10   12 ar   
    21   10   22 1    
    22   11   12 ar   
    23   11   23 1    
    24   12   24 1    
    25   13   20 am   BACKBONE|DICT|INTERRES
    26   13   21 2    
    27   14   15 1    
    28   14   20 1    
    29   14   31 1    
    30   14   32 1    
    31   15   16 1    
    32   15   33 1    
    33   16   34 1    
    34   16   35 1    
    35   16   36 1    
    36   17   22 1    
    37   17   37 1    
    38   17   38 1    
    39   17   39 1    
    40   18   23 1    
    41   18   40 1    
    42   18   41 1    
    43   18   42 1    
    44   19   24 1    
    45   19   43 1    
    46   19   44 1    
    47   19   45 1    
@<TRIPOS>SUBSTRUCTURE
     1 UNK         1 GROUP             0       ****    0 ROOT    
@<TRIPOS>MOLECULE
ZINC62001298_105
49   51    1
SMALL
USER_CHARGES


@<TRIPOS>ATOM
      1 C1         -7.9559  -12.4405   35.6682 C.ar      1 UNK        -0.1150 
      2 C2         -8.1484  -13.7017   36.2646 C.ar      1 UNK        -0.1150 
      3 C3         -7.3582  -11.3992   36.4043 C.ar      1 UNK        -0.1150 
      4 C4         -7.7458  -13.9239   37.5961 C.ar      1 UNK        -0.1150 
      5 C5         -7.6021   -6.1896   38.4531 C.ar      1 UNK        -0.1150 
      6 C6         -9.3457   -5.4003   39.9510 C.ar      1 UNK        -0.1150 
      7 C7         -6.9533  -11.6223   37.7380 C.ar      1 UNK        -0.1150 
      8 C8         -8.1938   -6.1791   39.7348 C.ar      1 UNK        -0.1150 
      9 C9         -7.1472  -12.8874   38.3407 C.ar      1 UNK         0.0308 
     10 C10        -8.1642   -5.4592   37.3775 C.ar      1 UNK         0.0850 
     11 C11        -9.9169   -4.6436   38.9013 C.ar      1 UNK         0.0850 
     12 C12        -9.3209   -4.6624   37.6184 C.ar      1 UNK         0.0850 
     13 C13        -6.2084  -12.1654   40.3364 C.ar      1 UNK         0.4234 
     14 C14        -6.3163  -10.5376   38.5555 C.ar      1 UNK         0.6150 
     15 C15        -7.6073   -6.9677   40.8708 C.2       1 UNK         0.6150 
     16 C16        -6.5936   -6.4389   35.8232 C.3       1 UNK         0.1100 
     17 C17       -11.6595   -3.8033   40.3351 C.3       1 UNK         0.1100 
     18 C18        -9.1620   -3.2660   35.6627 C.3       1 UNK         0.1100 
     19 C19        -5.3041   -9.9079   40.7134 C.3       1 UNK        -0.0500 
     20 C20        -6.3161   -9.0044   41.4449 C.3       1 UNK         0.0800 
     21 N21        -6.7597  -13.1312   39.6659 N.2       1 UNK        -0.3898 
     22 N22        -5.9615  -10.8786   39.8195 N.pl3     1 UNK        -0.1925 
     23 N23        -6.9071   -8.0502   40.5206 N.am      1 UNK        -0.5000 
     24 O24        -6.1511   -9.4049   38.0891 O.2       1 UNK        -0.5000 
     25 O25        -7.8226   -6.6671   42.0429 O.2       1 UNK        -0.5000 
     26 O26        -7.6376   -5.5157   36.1014 O.3       1 UNK        -0.2850 
     27 O27       -11.0439   -3.8614   39.0573 O.3       1 UNK        -0.2850 
     28 O28        -9.9534   -3.9011   36.6553 O.3       1 UNK        -0.2850 
     29 H29        -8.2680  -12.2714   34.6475 H         1 UNK         0.1150 
     30 H30        -8.6077  -14.5008   35.7010 H         1 UNK         0.1150 
     31 H31        -7.2127  -10.4310   35.9458 H         1 UNK         0.1150 
     32 H32        -7.9001  -14.8943   38.0461 H         1 UNK         0.1150 
     33 H33        -6.7093   -6.7750   38.3028 H         1 UNK         0.1150 
     34 H34        -9.7773   -5.4002   40.9406 H         1 UNK         0.1150 
     35 H35        -5.8966  -12.3007   41.3732 H         1 UNK         0.0581 
     36 H36        -6.3608   -6.4053   34.7591 H         1 UNK         0.0300 
     37 H37        -6.8875   -7.4622   36.0617 H         1 UNK         0.0300 
     38 H38        -5.6813   -6.1865   36.3652 H         1 UNK         0.0300 
     39 H39       -12.5250   -3.1428   40.2859 H         1 UNK         0.0300 
     40 H40       -10.9801   -3.3997   41.0871 H         1 UNK         0.0300 
     41 H41       -12.0121   -4.7852   40.6533 H         1 UNK         0.0300 
     42 H42        -9.6881   -2.3831   35.3003 H         1 UNK         0.0300 
     43 H43        -9.0043   -3.9224   34.8068 H         1 UNK         0.0300 
     44 H44        -8.1974   -2.9361   36.0514 H         1 UNK         0.0300 
     45 H45        -4.6918  -10.4255   41.4543 H         1 UNK         0.0600 
     46 H46        -4.5921   -9.2977   40.1531 H         1 UNK         0.0600 
     47 H47        -7.1014   -9.5887   41.9275 H         1 UNK         0.0600 
     48 H48        -5.8038   -8.4545   42.2374 H         1 UNK         0.0600 
     49 H49        -6.7996   -8.2331   39.5288 H         1 UNK         0.3000 
@<TRIPOS>BOND
     1    1    2 ar   
     2    1    3 ar   
     3    1   29 1    
     4    2    4 ar   
     5    2   30 1    
     6    3    7 ar   
     7    3   31 1    
     8    4    9 ar   
     9    4   32 1    
    10    5    8 ar   
    11    5   10 ar   
    12    5   33 1    
    13    6    8 ar   
    14    6   11 ar   
    15    6   34 1    
    16    7    9 ar   
    17    7   14 ar   
    18    8   15 1    
    19    9   21 ar   
    20   10   12 ar   
    21   10   26 1    
    22   11   12 ar   
    23   11   27 1    
    24   12   28 1    
    25   13   21 ar   
    26   13   22 ar   
    27   13   35 1    
    28   14   22 ar   
    29   14   24 2    
    30   15   23 am   BACKBONE|DICT|INTERRES
    31   15   25 2    
    32   16   26 1    
    33   16   36 1    
    34   16   37 1    
    35   16   38 1    
    36   17   27 1    
    37   17   39 1    
    38   17   40 1    
    39   17   41 1    
    40   18   28 1    
    41   18   42 1    
    42   18   43 1    
    43   18   44 1    
    44   19   20 1    
    45   19   22 1    
    46   19   45 1    
    47   19   46 1    
    48   20   23 1    
    49   20   47 1    
    50   20   48 1    
    51   23   49 1    
@<TRIPOS>SUBSTRUCTURE
     1 UNK         1 GROUP             0       ****    0 ROOT    
@<TRIPOS>MOLECULE
ZINC62001444_41
52   54    1
SMALL
USER_CHARGES


@<TRIPOS>ATOM
      1 C1         -8.0221  -12.3908   35.4984 C.ar      1 UNK        -0.1150 
      2 C2         -8.2715  -13.6683   36.0355 C.ar      1 UNK        -0.1150 
      3 C3         -7.4473  -11.3897   36.3051 C.ar      1 UNK        -0.1150 
      4 C4         -7.9483  -13.9461   37.3780 C.ar      1 UNK        -0.1150 
      5 C5         -7.6603   -6.2155   38.4806 C.ar      1 UNK        -0.1150 
      6 C6         -9.3827   -5.3722   39.9733 C.ar      1 UNK        -0.1150 
      7 C7         -7.1221  -11.6682   37.6506 C.ar      1 UNK        -0.1150 
      8 C8         -8.2637   -6.1974   39.7566 C.ar      1 UNK        -0.1150 
      9 C9         -7.3729  -12.9495   38.1922 C.ar      1 UNK         0.0308 
     10 C10        -8.1783   -5.4452   37.4106 C.ar      1 UNK         0.0850 
     11 C11        -9.9088   -4.5752   38.9299 C.ar      1 UNK         0.0850 
     12 C12        -9.3009   -4.6011   37.6525 C.ar      1 UNK         0.0850 
     13 C13        -6.5084  -10.6260   38.5395 C.ar      1 UNK         0.6150 
     14 C14        -6.5321  -12.3219   40.2592 C.ar      1 UNK         0.4815 
     15 C15        -7.7232   -7.0271   40.8863 C.2       1 UNK         0.6150 
     16 C16        -6.2329  -12.6348   41.7199 C.3       1 UNK        -0.1800 
     17 C17        -6.6324   -6.4675   35.8588 C.3       1 UNK         0.1100 
     18 C18       -11.6234   -3.6753   40.3611 C.3       1 UNK         0.1100 
     19 C19        -9.0621   -3.1893   35.7154 C.3       1 UNK         0.1100 
     20 C20        -5.5256  -10.0456   40.7039 C.3       1 UNK        -0.0500 
     21 C21        -6.5157   -9.1200   41.4407 C.3       1 UNK         0.0800 
     22 N22        -7.0681  -13.2486   39.5253 N.2       1 UNK        -0.3898 
     23 N23        -6.2091  -11.0107   39.8101 N.pl3     1 UNK        -0.1925 
     24 N24        -7.0605   -8.1298   40.5265 N.am      1 UNK        -0.5000 
     25 O25        -6.3042   -9.4841   38.1102 O.2       1 UNK        -0.5000 
     26 O26        -7.9416   -6.7375   42.0605 O.2       1 UNK        -0.5000 
     27 O27        -7.6412   -5.5065   36.1390 O.3       1 UNK        -0.2850 
     28 O28       -11.0019   -3.7464   39.0869 O.3       1 UNK        -0.2850 
     29 O29        -9.8888   -3.7969   36.6959 O.3       1 UNK        -0.2850 
     30 H30        -8.2723  -12.1784   34.4687 H         1 UNK         0.1150 
     31 H31        -8.7136  -14.4369   35.4183 H         1 UNK         0.1150 
     32 H32        -7.2577  -10.4095   35.8906 H         1 UNK         0.1150 
     33 H33        -8.1461  -14.9285   37.7829 H         1 UNK         0.1150 
     34 H34        -6.7926   -6.8370   38.3300 H         1 UNK         0.1150 
     35 H35        -9.8239   -5.3676   40.9587 H         1 UNK         0.1150 
     36 H36        -5.1641  -12.7884   41.8680 H         1 UNK         0.0600 
     37 H37        -6.7385  -13.5543   42.0171 H         1 UNK         0.0600 
     38 H38        -6.5875  -11.8513   42.3875 H         1 UNK         0.0600 
     39 H39        -6.3861   -6.4282   34.7979 H         1 UNK         0.0300 
     40 H40        -6.9703   -7.4813   36.0796 H         1 UNK         0.0300 
     41 H41        -5.7172   -6.2601   36.4146 H         1 UNK         0.0300 
     42 H42       -12.4592   -2.9775   40.3135 H         1 UNK         0.0300 
     43 H43       -10.9328   -3.3098   41.1221 H         1 UNK         0.0300 
     44 H44       -12.0209   -4.6440   40.6662 H         1 UNK         0.0300 
     45 H45        -9.5440   -2.2791   35.3593 H         1 UNK         0.0300 
     46 H46        -8.9296   -3.8429   34.8533 H         1 UNK         0.0300 
     47 H47        -8.0857   -2.9087   36.1135 H         1 UNK         0.0300 
     48 H48        -4.8835  -10.5450   41.4280 H         1 UNK         0.0600 
     49 H49        -4.8155   -9.4399   40.1362 H         1 UNK         0.0600 
     50 H50        -7.3302   -9.6782   41.9040 H         1 UNK         0.0600 
     51 H51        -5.9931   -8.6016   42.2473 H         1 UNK         0.0600 
     52 H52        -6.9474   -8.3022   39.5334 H         1 UNK         0.3000 
@<TRIPOS>BOND
     1    1    2 ar   
     2    1    3 ar   
     3    1   30 1    
     4    2    4 ar   
     5    2   31 1    
     6    3    7 ar   
     7    3   32 1    
     8    4    9 ar   
     9    4   33 1    
    10    5    8 ar   
    11    5   10 ar   
    12    5   34 1    
    13    6    8 ar   
    14    6   11 ar   
    15    6   35 1    
    16    7    9 ar   
    17    7   13 ar   
    18    8   15 1    
    19    9   22 ar   
    20   10   12 ar   
    21   10   27 1    
    22   11   12 ar   
    23   11   28 1    
    24   12   29 1    
    25   13   23 ar   
    26   13   25 2    
    27   14   16 1    
    28   14   22 ar   
    29   14   23 ar   
    30   15   24 am   BACKBONE|DICT|INTERRES
    31   15   26 2    
    32   16   36 1    
    33   16   37 1    
    34   16   38 1    
    35   17   27 1    
    36   17   39 1    
    37   17   40 1    
    38   17   41 1    
    39   18   28 1    
    40   18   42 1    
    41   18   43 1    
    42   18   44 1    
    43   19   29 1    
    44   19   45 1    
    45   19   46 1    
    46   19   47 1    
    47   20   21 1    
    48   20   23 1    
    49   20   48 1    
    50   20   49 1    
    51   21   24 1    
    52   21   50 1    
    53   21   51 1    
    54   24   52 1    
@<TRIPOS>SUBSTRUCTURE
     1 UNK         1 GROUP             0       ****    0 ROOT    
@<TRIPOS>MOLECULE
ZINC62131268_149
57   59    1
SMALL
USER_CHARGES


@<TRIPOS>ATOM
      1 C1         -8.5579   -6.8247   38.3832 C.ar      1 UNK        -0.1150 
      2 C2         -8.0051   -4.9456   39.8193 C.ar      1 UNK        -0.1150 
      3 C3         -4.2899  -12.7263   35.4959 C.ar      1 UNK        -0.3200 
      4 C4         -8.0145   -6.3315   39.5853 C.ar      1 UNK        -0.1150 
      5 C5         -9.0369   -5.9505   37.3768 C.ar      1 UNK         0.0850 
      6 C6         -8.4817   -4.0461   38.8372 C.ar      1 UNK         0.0850 
      7 C7         -8.9779   -4.5427   37.6073 C.ar      1 UNK         0.0850 
      8 C8         -5.5315  -12.1780   35.0711 C.ar      1 UNK         0.2230 
      9 C9         -4.3906  -12.7792   36.8577 C.ar      1 UNK         0.0560 
     10 C10        -7.5234   -7.2695   40.6512 C.2       1 UNK         0.6150 
     11 C11        -6.5484  -10.6492   40.5576 C.3       1 UNK        -0.1200 
     12 C12        -6.0745   -9.5412   38.3164 C.3       1 UNK        -0.1200 
     13 C13        -6.2329   -9.3004   41.2309 C.3       1 UNK        -0.0500 
     14 C14        -5.7955   -8.2399   39.0902 C.3       1 UNK        -0.0500 
     15 C15        -5.8384  -10.7928   39.1936 C.3       1 UNK        -0.0600 
     16 C16        -5.9986  -11.8875   33.6778 C.3       1 UNK        -0.0650 
     17 C17        -3.4136  -13.2608   37.8781 C.3       1 UNK        -0.0650 
     18 C18        -9.5902   -7.8296   35.9561 C.3       1 UNK         0.1100 
     19 C19        -8.0442   -2.1424   40.2463 C.3       1 UNK         0.1100 
     20 C20        -9.4207   -3.8523   35.3269 C.3       1 UNK         0.1100 
     21 C21        -6.2476  -12.1085   38.4946 C.3       1 UNK         0.0025 
     22 N22        -6.3318  -11.9127   36.0878 N.2       1 UNK        -0.5310 
     23 N23        -5.6370  -12.2781   37.1859 N.pl3     1 UNK         0.0695 
     24 N24        -6.6026   -8.2109   40.3188 N.am      1 UNK        -0.1400 
     25 O25        -7.9781   -7.1535   41.7887 O.2       1 UNK        -0.5000 
     26 O26        -9.5797   -6.4294   36.1997 O.3       1 UNK        -0.2850 
     27 O27        -8.4813   -2.6756   39.0053 O.3       1 UNK        -0.2850 
     28 O28        -9.4069   -3.5746   36.7179 O.3       1 UNK        -0.2850 
     29 H29        -8.6066   -7.8945   38.2625 H         1 UNK         0.1150 
     30 H30        -7.6218   -4.5963   40.7662 H         1 UNK         0.1150 
     31 H31        -3.4523  -13.0357   34.8888 H         1 UNK         0.1500 
     32 H32        -6.2578  -11.4666   41.2187 H         1 UNK         0.0600 
     33 H33        -7.6280  -10.7353   40.4220 H         1 UNK         0.0600 
     34 H34        -7.0989   -9.5472   37.9445 H         1 UNK         0.0600 
     35 H35        -5.4364   -9.5744   37.4322 H         1 UNK         0.0600 
     36 H36        -6.7598   -9.2435   42.1851 H         1 UNK         0.0600 
     37 H37        -5.1713   -9.2303   41.4710 H         1 UNK         0.0600 
     38 H38        -4.7407   -8.1958   39.3645 H         1 UNK         0.0600 
     39 H39        -5.9527   -7.3758   38.4452 H         1 UNK         0.0600 
     40 H40        -4.7670  -10.8444   39.3903 H         1 UNK         0.0600 
     41 H41        -6.9097  -12.4406   33.4494 H         1 UNK         0.0600 
     42 H42        -6.2128  -10.8264   33.5521 H         1 UNK         0.0600 
     43 H43        -5.2453  -12.1660   32.9414 H         1 UNK         0.0600 
     44 H44        -3.1209  -12.4525   38.5477 H         1 UNK         0.0600 
     45 H45        -3.8412  -14.0644   38.4774 H         1 UNK         0.0600 
     46 H46        -2.5113  -13.6438   37.4017 H         1 UNK         0.0600 
     47 H47       -10.0138   -8.0172   34.9694 H         1 UNK         0.0300 
     48 H48       -10.2095   -8.3565   36.6832 H         1 UNK         0.0300 
     49 H49        -8.5824   -8.2475   35.9644 H         1 UNK         0.0300 
     50 H50        -8.1373   -1.0568   40.2226 H         1 UNK         0.0300 
     51 H51        -6.9961   -2.3785   40.4348 H         1 UNK         0.0300 
     52 H52        -8.6536   -2.5068   41.0744 H         1 UNK         0.0300 
     53 H53        -9.4335   -2.9107   34.7786 H         1 UNK         0.0300 
     54 H54       -10.3175   -4.4028   35.0417 H         1 UNK         0.0300 
     55 H55        -8.5334   -4.4027   35.0106 H         1 UNK         0.0300 
     56 H56        -7.3314  -12.1454   38.3719 H         1 UNK         0.0600 
     57 H57        -5.9847  -12.9669   39.1126 H         1 UNK         0.0600 
@<TRIPOS>BOND
     1    1    4 ar   
     2    1    5 ar   
     3    1   29 1    
     4    2    4 ar   
     5    2    6 ar   
     6    2   30 1    
     7    3    8 ar   
     8    3    9 ar   
     9    3   31 1    
    10    4   10 1    
    11    5    7 ar   
    12    5   26 1    
    13    6    7 ar   
    14    6   27 1    
    15    7   28 1    
    16    8   16 1    
    17    8   22 ar   
    18    9   17 1    
    19    9   23 ar   
    20   10   24 am   BACKBONE|DICT|INTERRES
    21   10   25 2    
    22   11   13 1    
    23   11   15 1    
    24   11   32 1    
    25   11   33 1    
    26   12   14 1    
    27   12   15 1    
    28   12   34 1    
    29   12   35 1    
    30   13   24 1    
    31   13   36 1    
    32   13   37 1    
    33   14   24 1    
    34   14   38 1    
    35   14   39 1    
    36   15   21 1    
    37   15   40 1    
    38   16   41 1    
    39   16   42 1    
    40   16   43 1    
    41   17   44 1    
    42   17   45 1    
    43   17   46 1    
    44   18   26 1    
    45   18   47 1    
    46   18   48 1    
    47   18   49 1    
    48   19   27 1    
    49   19   50 1    
    50   19   51 1    
    51   19   52 1    
    52   20   28 1    
    53   20   53 1    
    54   20   54 1    
    55   20   55 1    
    56   21   23 1    
    57   21   56 1    
    58   21   57 1    
    59   22   23 ar   
@<TRIPOS>SUBSTRUCTURE
     1 UNK         1 GROUP             0       ****    0 ROOT    
@<TRIPOS>MOLECULE
ZINC64929680_46
55   57    1
SMALL
USER_CHARGES


@<TRIPOS>ATOM
      1 C1         -4.4964   -7.3992   37.0159 C.ar      1 UNK        -0.4470 
      2 C2         -5.0593   -7.0603   38.2559 C.ar      1 UNK         0.2270 
      3 C3         -8.2381   -6.5696   38.4653 C.ar      1 UNK        -0.1150 
      4 C4         -7.5721   -4.5226   39.6070 C.ar      1 UNK        -0.1150 
      5 C5         -4.4796   -8.7502   36.6386 C.ar      1 UNK         0.4730 
      6 C6         -7.5822   -5.9307   39.5403 C.ar      1 UNK        -0.1150 
      7 C7         -5.6019   -8.0826   39.0696 C.ar      1 UNK        -0.2070 
      8 C8         -8.8289   -5.8164   37.4241 C.ar      1 UNK         0.0850 
      9 C9         -8.1706   -3.7470   38.5855 C.ar      1 UNK         0.0850 
     10 C10        -8.7843   -4.4058   37.4964 C.ar      1 UNK         0.0850 
     11 C11        -5.5015   -9.4201   38.6141 C.ar      1 UNK         0.5109 
     12 C12        -6.9586   -6.7337   40.6509 C.2       1 UNK         0.6150 
     13 C13        -6.0632   -8.8955   41.3286 C.3       1 UNK        -0.0500 
     14 C14        -6.5678  -10.2075   40.7093 C.3       1 UNK         0.0900 
     15 C15       -10.6455   -8.3812   37.0117 C.3       1 UNK        -0.1800 
     16 C16        -7.8722   -0.1776   39.4797 C.3       1 UNK        -0.1800 
     17 C17        -9.2356   -2.5418   34.3942 C.3       1 UNK        -0.1800 
     18 C18        -5.9273  -11.8497   38.8876 C.3       1 UNK         0.0300 
     19 C19        -9.5040   -7.7868   36.1758 C.3       1 UNK         0.1400 
     20 C20        -7.6710   -1.6767   39.7060 C.3       1 UNK         0.1400 
     21 C21        -8.4880   -3.3877   35.4259 C.3       1 UNK         0.1400 
     22 N22        -4.9642   -9.7352   37.4175 N.ar      1 UNK        -0.6780 
     23 N23        -6.1974   -7.8169   40.3441 N.am      1 UNK        -0.1550 
     24 N24        -5.9543  -10.4901   39.4148 N.pl3     1 UNK        -0.4459 
     25 O25        -7.1407   -6.3653   41.8105 O.2       1 UNK        -0.5000 
     26 O26        -9.4472   -6.3726   36.3209 O.3       1 UNK        -0.2850 
     27 O27        -8.1850   -2.3674   38.5777 O.3       1 UNK        -0.2850 
     28 O28        -9.3654   -3.6604   36.5039 O.3       1 UNK        -0.2850 
     29 H29        -4.0848   -6.6412   36.3665 H         1 UNK         0.1550 
     30 H30        -5.0691   -6.0265   38.5676 H         1 UNK         0.0650 
     31 H31        -8.2656   -7.6479   38.4561 H         1 UNK         0.1150 
     32 H32        -7.0945   -4.0592   40.4574 H         1 UNK         0.1150 
     33 H33        -4.0570   -9.0508   35.6913 H         1 UNK         0.0120 
     34 H34        -6.6033   -8.7090   42.2591 H         1 UNK         0.0600 
     35 H35        -5.0112   -8.9871   41.6026 H         1 UNK         0.0600 
     36 H36        -6.3726  -11.0337   41.3939 H         1 UNK         0.0600 
     37 H37        -7.6489  -10.1595   40.5734 H         1 UNK         0.0600 
     38 H38       -10.5088   -8.2041   38.0776 H         1 UNK         0.0600 
     39 H39       -11.6002   -7.9397   36.7254 H         1 UNK         0.0600 
     40 H40       -10.7175   -9.4579   36.8598 H         1 UNK         0.0600 
     41 H41        -7.3473    0.1547   38.5841 H         1 UNK         0.0600 
     42 H42        -8.9294    0.0571   39.3540 H         1 UNK         0.0600 
     43 H43        -7.4979    0.4001   40.3246 H         1 UNK         0.0600 
     44 H44       -10.1122   -3.0715   34.0207 H         1 UNK         0.0600 
     45 H45        -9.5732   -1.6034   34.8344 H         1 UNK         0.0600 
     46 H46        -8.5962   -2.3054   33.5441 H         1 UNK         0.0600 
     47 H47        -6.3692  -12.5577   39.5883 H         1 UNK         0.0600 
     48 H48        -4.8999  -12.1591   38.6923 H         1 UNK         0.0600 
     49 H49        -6.4834  -11.9071   37.9511 H         1 UNK         0.0600 
     50 H50        -9.6986   -7.9932   35.1232 H         1 UNK         0.0300 
     51 H51        -8.5461   -8.2615   36.3913 H         1 UNK         0.0300 
     52 H52        -8.1939   -1.9844   40.6132 H         1 UNK         0.0300 
     53 H53        -6.6082   -1.8894   39.8324 H         1 UNK         0.0300 
     54 H54        -7.6075   -2.8502   35.7821 H         1 UNK         0.0300 
     55 H55        -8.1458   -4.3179   34.9696 H         1 UNK         0.0300 
@<TRIPOS>BOND
     1    1    2 ar   
     2    1    5 ar   
     3    1   29 1    
     4    2    7 ar   
     5    2   30 1    
     6    3    6 ar   
     7    3    8 ar   
     8    3   31 1    
     9    4    6 ar   
    10    4    9 ar   
    11    4   32 1    
    12    5   22 ar   
    13    5   33 1    
    14    6   12 1    
    15    7   11 ar   
    16    7   23 1    
    17    8   10 ar   
    18    8   26 1    
    19    9   10 ar   
    20    9   27 1    
    21   10   28 1    
    22   11   22 ar   
    23   11   24 1    
    24   12   23 am   BACKBONE|DICT|INTERRES
    25   12   25 2    
    26   13   14 1    
    27   13   23 1    
    28   13   34 1    
    29   13   35 1    
    30   14   24 1    
    31   14   36 1    
    32   14   37 1    
    33   15   19 1    
    34   15   38 1    
    35   15   39 1    
    36   15   40 1    
    37   16   20 1    
    38   16   41 1    
    39   16   42 1    
    40   16   43 1    
    41   17   21 1    
    42   17   44 1    
    43   17   45 1    
    44   17   46 1    
    45   18   24 1    
    46   18   47 1    
    47   18   48 1    
    48   18   49 1    
    49   19   26 1    
    50   19   50 1    
    51   19   51 1    
    52   20   27 1    
    53   20   52 1    
    54   20   53 1    
    55   21   28 1    
    56   21   54 1    
    57   21   55 1    
@<TRIPOS>SUBSTRUCTURE
     1 UNK         1 GROUP             0       ****    0 ROOT    
@<TRIPOS>MOLECULE
ZINC64929680_46
55   57    1
SMALL
USER_CHARGES


@<TRIPOS>ATOM
      1 C1         -4.4964   -7.3992   37.0159 C.ar      1 UNK        -0.4470 
      2 C2         -5.0593   -7.0603   38.2559 C.ar      1 UNK         0.2270 
      3 C3         -8.2381   -6.5696   38.4653 C.ar      1 UNK        -0.1150 
      4 C4         -7.5721   -4.5226   39.6070 C.ar      1 UNK        -0.1150 
      5 C5         -4.4796   -8.7502   36.6386 C.ar      1 UNK         0.4730 
      6 C6         -7.5822   -5.9307   39.5403 C.ar      1 UNK        -0.1150 
      7 C7         -5.6019   -8.0826   39.0696 C.ar      1 UNK        -0.2070 
      8 C8         -8.8289   -5.8164   37.4241 C.ar      1 UNK         0.0850 
      9 C9         -8.1706   -3.7470   38.5855 C.ar      1 UNK         0.0850 
     10 C10        -8.7843   -4.4058   37.4964 C.ar      1 UNK         0.0850 
     11 C11        -5.5015   -9.4201   38.6141 C.ar      1 UNK         0.5109 
     12 C12        -6.9586   -6.7337   40.6509 C.2       1 UNK         0.6150 
     13 C13        -6.0632   -8.8955   41.3286 C.3       1 UNK        -0.0500 
     14 C14        -6.5678  -10.2075   40.7093 C.3       1 UNK         0.0900 
     15 C15       -10.6455   -8.3812   37.0117 C.3       1 UNK        -0.1800 
     16 C16        -7.8722   -0.1776   39.4797 C.3       1 UNK        -0.1800 
     17 C17        -9.2356   -2.5418   34.3942 C.3       1 UNK        -0.1800 
     18 C18        -5.9273  -11.8497   38.8876 C.3       1 UNK         0.0300 
     19 C19        -9.5040   -7.7868   36.1758 C.3       1 UNK         0.1400 
     20 C20        -7.6710   -1.6767   39.7060 C.3       1 UNK         0.1400 
     21 C21        -8.4880   -3.3877   35.4259 C.3       1 UNK         0.1400 
     22 N22        -4.9642   -9.7352   37.4175 N.ar      1 UNK        -0.6780 
     23 N23        -6.1974   -7.8169   40.3441 N.am      1 UNK        -0.1550 
     24 N24        -5.9543  -10.4901   39.4148 N.pl3     1 UNK        -0.4459 
     25 O25        -7.1407   -6.3653   41.8105 O.2       1 UNK        -0.5000 
     26 O26        -9.4472   -6.3726   36.3209 O.3       1 UNK        -0.2850 
     27 O27        -8.1850   -2.3674   38.5777 O.3       1 UNK        -0.2850 
     28 O28        -9.3654   -3.6604   36.5039 O.3       1 UNK        -0.2850 
     29 H29        -4.0848   -6.6412   36.3665 H         1 UNK         0.1550 
     30 H30        -5.0691   -6.0265   38.5676 H         1 UNK         0.0650 
     31 H31        -8.2656   -7.6479   38.4561 H         1 UNK         0.1150 
     32 H32        -7.0945   -4.0592   40.4574 H         1 UNK         0.1150 
     33 H33        -4.0570   -9.0508   35.6913 H         1 UNK         0.0120 
     34 H34        -6.6033   -8.7090   42.2591 H         1 UNK         0.0600 
     35 H35        -5.0112   -8.9871   41.6026 H         1 UNK         0.0600 
     36 H36        -6.3726  -11.0337   41.3939 H         1 UNK         0.0600 
     37 H37        -7.6489  -10.1595   40.5734 H         1 UNK         0.0600 
     38 H38       -10.5088   -8.2041   38.0776 H         1 UNK         0.0600 
     39 H39       -11.6002   -7.9397   36.7254 H         1 UNK         0.0600 
     40 H40       -10.7175   -9.4579   36.8598 H         1 UNK         0.0600 
     41 H41        -7.3473    0.1547   38.5841 H         1 UNK         0.0600 
     42 H42        -8.9294    0.0571   39.3540 H         1 UNK         0.0600 
     43 H43        -7.4979    0.4001   40.3246 H         1 UNK         0.0600 
     44 H44       -10.1122   -3.0715   34.0207 H         1 UNK         0.0600 
     45 H45        -9.5732   -1.6034   34.8344 H         1 UNK         0.0600 
     46 H46        -8.5962   -2.3054   33.5441 H         1 UNK         0.0600 
     47 H47        -6.3692  -12.5577   39.5883 H         1 UNK         0.0600 
     48 H48        -4.8999  -12.1591   38.6923 H         1 UNK         0.0600 
     49 H49        -6.4834  -11.9071   37.9511 H         1 UNK         0.0600 
     50 H50        -9.6986   -7.9932   35.1232 H         1 UNK         0.0300 
     51 H51        -8.5461   -8.2615   36.3913 H         1 UNK         0.0300 
     52 H52        -8.1939   -1.9844   40.6132 H         1 UNK         0.0300 
     53 H53        -6.6082   -1.8894   39.8324 H         1 UNK         0.0300 
     54 H54        -7.6075   -2.8502   35.7821 H         1 UNK         0.0300 
     55 H55        -8.1458   -4.3179   34.9696 H         1 UNK         0.0300 
@<TRIPOS>BOND
     1    1    2 ar   
     2    1    5 ar   
     3    1   29 1    
     4    2    7 ar   
     5    2   30 1    
     6    3    6 ar   
     7    3    8 ar   
     8    3   31 1    
     9    4    6 ar   
    10    4    9 ar   
    11    4   32 1    
    12    5   22 ar   
    13    5   33 1    
    14    6   12 1    
    15    7   11 ar   
    16    7   23 1    
    17    8   10 ar   
    18    8   26 1    
    19    9   10 ar   
    20    9   27 1    
    21   10   28 1    
    22   11   22 ar   
    23   11   24 1    
    24   12   23 am   BACKBONE|DICT|INTERRES
    25   12   25 2    
    26   13   14 1    
    27   13   23 1    
    28   13   34 1    
    29   13   35 1    
    30   14   24 1    
    31   14   36 1    
    32   14   37 1    
    33   15   19 1    
    34   15   38 1    
    35   15   39 1    
    36   15   40 1    
    37   16   20 1    
    38   16   41 1    
    39   16   42 1    
    40   16   43 1    
    41   17   21 1    
    42   17   44 1    
    43   17   45 1    
    44   17   46 1    
    45   18   24 1    
    46   18   47 1    
    47   18   48 1    
    48   18   49 1    
    49   19   26 1    
    50   19   50 1    
    51   19   51 1    
    52   20   27 1    
    53   20   52 1    
    54   20   53 1    
    55   21   28 1    
    56   21   54 1    
    57   21   55 1    
@<TRIPOS>SUBSTRUCTURE
     1 UNK         1 GROUP             0       ****    0 ROOT    
@<TRIPOS>MOLECULE
ZINC65133017_173
48   50    1
SMALL
USER_CHARGES


@<TRIPOS>ATOM
      1 C1         -5.2242  -12.2251   37.2366 C.ar      1 UNK        -0.1150 
      2 C2         -4.0195  -10.1463   36.8117 C.ar      1 UNK        -0.1150 
      3 C3         -4.5853  -12.8195   36.1309 C.ar      1 UNK        -0.1150 
      4 C4         -3.3831  -10.7416   35.7051 C.ar      1 UNK        -0.1150 
      5 C5         -8.3366   -5.9198   37.7917 C.ar      1 UNK        -0.1150 
      6 C6         -9.0196   -4.9736   37.0112 C.ar      1 UNK        -0.1150 
      7 C7         -7.5340   -4.1280   39.2219 C.ar      1 UNK        -0.1150 
      8 C8         -4.9387  -10.8875   37.5852 C.ar      1 UNK         0.0000 
      9 C9         -3.6627  -12.0803   35.3633 C.ar      1 UNK        -0.1150 
     10 C10        -7.5948   -5.5068   38.9118 C.ar      1 UNK         0.0850 
     11 C11        -8.9845   -3.6002   37.3202 C.ar      1 UNK         0.0850 
     12 C12        -8.2213   -3.1580   38.4433 C.ar      1 UNK         0.0850 
     13 C13        -6.7544  -10.6263   39.3278 C.ar      1 UNK        -0.1717 
     14 C14        -5.6178  -10.2506   38.7252 C.ar      1 UNK         0.0180 
     15 C15        -6.9697   -9.7702   40.4759 C.ar      1 UNK         0.5567 
     16 C16        -6.3695   -6.4914   40.8732 C.2       1 UNK         0.5000 
     17 C17        -2.9859  -12.7203   34.1690 C.3       1 UNK        -0.0650 
     18 C18        -9.9776   -1.4513   36.7635 C.3       1 UNK         0.1100 
     19 C19        -7.4673   -1.3851   39.9069 C.3       1 UNK         0.1100 
     20 C20        -5.7098   -7.7850   41.3777 C.3       1 UNK         0.0800 
     21 N21        -5.0710   -9.2147   39.4360 N.pl3     1 UNK        -0.3717 
     22 N22        -5.9085   -8.9467   40.5063 N.pl3     1 UNK        -0.2000 
     23 N23        -6.9156   -6.5198   39.6425 N.am      1 UNK        -0.3850 
     24 O24        -7.9235   -9.7436   41.2450 O.2       1 UNK        -0.5000 
     25 O25        -6.3549   -5.5033   41.6034 O.2       1 UNK        -0.5000 
     26 O26        -9.7160   -2.8108   36.4532 O.3       1 UNK        -0.2850 
     27 O27        -8.1499   -1.8091   38.7348 O.3       1 UNK        -0.2850 
     28 H28        -5.9273  -12.8071   37.8136 H         1 UNK         0.1150 
     29 H29        -3.8065   -9.1148   37.0505 H         1 UNK         0.1150 
     30 H30        -4.8096  -13.8446   35.8732 H         1 UNK         0.1150 
     31 H31        -2.6859  -10.1628   35.1161 H         1 UNK         0.1150 
     32 H32        -8.3963   -6.9643   37.5218 H         1 UNK         0.1150 
     33 H33        -9.5917   -5.3047   36.1572 H         1 UNK         0.1150 
     34 H34        -6.9381   -3.8134   40.0607 H         1 UNK         0.1150 
     35 H35        -7.3999  -11.4414   39.0381 H         1 UNK         0.1150 
     36 H36        -3.6310  -12.6550   33.2925 H         1 UNK         0.0600 
     37 H37        -2.0423  -12.2246   33.9389 H         1 UNK         0.0600 
     38 H38        -2.7742  -13.7723   34.3623 H         1 UNK         0.0600 
     39 H39       -10.7024   -1.0588   36.0508 H         1 UNK         0.0300 
     40 H40        -9.0772   -0.8424   36.6757 H         1 UNK         0.0300 
     41 H41       -10.4084   -1.3379   37.7593 H         1 UNK         0.0300 
     42 H42        -7.5632   -0.3039   40.0056 H         1 UNK         0.0300 
     43 H43        -6.4024   -1.6155   39.8553 H         1 UNK         0.0300 
     44 H44        -7.8946   -1.8347   40.8046 H         1 UNK         0.0300 
     45 H45        -6.1109   -8.0056   42.3687 H         1 UNK         0.0600 
     46 H46        -4.6440   -7.6012   41.5118 H         1 UNK         0.0600 
     47 H47        -4.0733   -9.2583   39.6054 H         1 UNK         0.3537 
     48 H48        -6.8623   -7.4244   39.1972 H         1 UNK         0.3000 
@<TRIPOS>BOND
     1    1    3 ar   
     2    1    8 ar   
     3    1   28 1    
     4    2    4 ar   
     5    2    8 ar   
     6    2   29 1    
     7    3    9 ar   
     8    3   30 1    
     9    4    9 ar   
    10    4   31 1    
    11    5    6 ar   
    12    5   10 ar   
    13    5   32 1    
    14    6   11 ar   
    15    6   33 1    
    16    7   10 ar   
    17    7   12 ar   
    18    7   34 1    
    19    8   14 1    
    20    9   17 1    
    21   10   23 1    
    22   11   12 ar   
    23   11   26 1    
    24   12   27 1    
    25   13   14 ar   
    26   13   15 ar   
    27   13   35 1    
    28   14   21 ar   
    29   15   22 ar   
    30   15   24 2    
    31   16   20 1    
    32   16   23 am   BACKBONE|DICT|INTERRES
    33   16   25 2    
    34   17   36 1    
    35   17   37 1    
    36   17   38 1    
    37   18   26 1    
    38   18   39 1    
    39   18   40 1    
    40   18   41 1    
    41   19   27 1    
    42   19   42 1    
    43   19   43 1    
    44   19   44 1    
    45   20   22 1    
    46   20   45 1    
    47   20   46 1    
    48   21   22 1    
    49   21   47 1    
    50   23   48 1    
@<TRIPOS>SUBSTRUCTURE
     1 UNK         1 GROUP             0       ****    0 ROOT    
@<TRIPOS>MOLECULE
ZINC65247347_42
44   47    1
SMALL
USER_CHARGES


@<TRIPOS>ATOM
      1 C1        -13.8847  -22.2441   36.9582 C.ar      1 UNK        -0.1150 
      2 C2        -14.5228  -20.9854   37.0169 C.ar      1 UNK        -0.1150 
      3 C3        -12.5633  -25.0464   36.9545 C.2       1 UNK        -0.4550 
      4 C4        -15.0589  -22.9774   38.9707 C.ar      1 UNK        -0.1150 
      5 C5        -18.4550  -17.5166   37.8619 C.ar      1 UNK        -0.1150 
      6 C6        -16.6473  -16.0651   38.6009 C.ar      1 UNK        -0.1150 
      7 C7        -18.9506  -15.2828   38.6922 C.ar      1 UNK        -0.1150 
      8 C8        -12.3130  -26.3593   37.4353 C.2       1 UNK         0.4050 
      9 C9        -14.1417  -23.2484   37.9269 C.ar      1 UNK         0.0000 
     10 C10       -17.0799  -17.3087   38.0988 C.ar      1 UNK        -0.1150 
     11 C11       -15.6871  -21.7210   39.0164 C.ar      1 UNK        -0.1150 
     12 C12       -15.4288  -20.7375   38.0694 C.ar      1 UNK        -0.0383 
     13 C13       -19.3995  -16.5178   38.1602 C.ar      1 UNK         0.0850 
     14 C14       -17.5694  -15.0477   38.9095 C.ar      1 UNK         0.0850 
     15 C15       -13.4713  -24.5444   37.8449 C.2       1 UNK         0.3480 
     16 C16       -16.0680  -18.3656   37.7587 C.2       1 UNK         0.6150 
     17 C17       -16.6854  -21.2484   40.0313 C.3       1 UNK        -0.0050 
     18 C18       -17.0900  -19.8568   39.4949 C.3       1 UNK        -0.0500 
     19 C19       -21.7014  -15.8307   38.1555 C.3       1 UNK         0.1100 
     20 C20       -17.9425  -12.8114   39.7072 C.3       1 UNK         0.1100 
     21 N21       -13.0090  -26.6317   38.5236 N.2       1 UNK        -0.4130 
     22 N22       -16.2054  -19.5830   38.3462 N.am      1 UNK        -0.0317 
     23 O23       -15.1477  -18.0667   36.9978 O.2       1 UNK        -0.5000 
     24 O24       -13.7529  -25.4778   38.7940 O.3       1 UNK        -0.1220 
     25 O25       -20.7184  -16.8241   37.9050 O.3       1 UNK        -0.2850 
     26 O26       -17.0489  -13.8745   39.4111 O.3       1 UNK        -0.2850 
     27 H27       -13.1905  -22.4359   36.1543 H         1 UNK         0.1150 
     28 H28       -14.3117  -20.2438   36.2602 H         1 UNK         0.1150 
     29 H29       -12.1409  -24.5563   36.0930 H         1 UNK         0.1840 
     30 H30       -15.2768  -23.7230   39.7220 H         1 UNK         0.1150 
     31 H31       -18.7968  -18.4491   37.4358 H         1 UNK         0.1150 
     32 H32       -15.5915  -15.8876   38.7532 H         1 UNK         0.1150 
     33 H33       -19.6652  -14.5120   38.9261 H         1 UNK         0.1150 
     34 H34       -11.6548  -27.1150   37.0319 H         1 UNK         0.0530 
     35 H35       -16.2132  -21.1808   41.0122 H         1 UNK         0.0600 
     36 H36       -17.5348  -21.9297   40.0942 H         1 UNK         0.0600 
     37 H37       -18.1288  -19.8829   39.1664 H         1 UNK         0.0600 
     38 H38       -16.9958  -19.0934   40.2689 H         1 UNK         0.0600 
     39 H39       -21.5252  -14.9350   37.5584 H         1 UNK         0.0300 
     40 H40       -21.7355  -15.5615   39.2120 H         1 UNK         0.0300 
     41 H41       -22.6824  -16.2196   37.8829 H         1 UNK         0.0300 
     42 H42       -18.4871  -12.4877   38.8191 H         1 UNK         0.0300 
     43 H43       -17.3745  -11.9564   40.0735 H         1 UNK         0.0300 
     44 H44       -18.6526  -13.0931   40.4859 H         1 UNK         0.0300 
@<TRIPOS>BOND
     1    1    2 ar   
     2    1    9 ar   
     3    1   27 1    
     4    2   12 ar   
     5    2   28 1    
     6    3    8 1    
     7    3   15 2    
     8    3   29 1    
     9    4    9 ar   
    10    4   11 ar   
    11    4   30 1    
    12    5   10 ar   
    13    5   13 ar   
    14    5   31 1    
    15    6   10 ar   
    16    6   14 ar   
    17    6   32 1    
    18    7   13 ar   
    19    7   14 ar   
    20    7   33 1    
    21    8   21 2    
    22    8   34 1    
    23    9   15 1    
    24   10   16 1    
    25   11   12 ar   
    26   11   17 1    
    27   12   22 1    
    28   13   25 1    
    29   14   26 1    
    30   15   24 1    
    31   16   22 am   BACKBONE|DICT|INTERRES
    32   16   23 2    
    33   17   18 1    
    34   17   35 1    
    35   17   36 1    
    36   18   22 1    
    37   18   37 1    
    38   18   38 1    
    39   19   25 1    
    40   19   39 1    
    41   19   40 1    
    42   19   41 1    
    43   20   26 1    
    44   20   42 1    
    45   20   43 1    
    46   20   44 1    
    47   21   24 1    
@<TRIPOS>SUBSTRUCTURE
     1 UNK         1 GROUP             0       ****    0 ROOT    
@<TRIPOS>MOLECULE
ZINC65247371_49
47   50    1
SMALL
USER_CHARGES


@<TRIPOS>ATOM
      1 C1        -13.7847  -22.6044   36.6145 C.ar      1 UNK        -0.1150 
      2 C2        -14.4071  -21.3418   36.7313 C.ar      1 UNK        -0.1150 
      3 C3        -14.9283  -23.3979   38.6215 C.ar      1 UNK        -0.1150 
      4 C4        -18.3089  -17.9005   37.7380 C.ar      1 UNK        -0.1150 
      5 C5        -16.4990  -16.4676   38.5084 C.ar      1 UNK        -0.1150 
      6 C6        -18.8045  -15.6969   38.6438 C.ar      1 UNK        -0.1150 
      7 C7        -12.5200  -25.4317   36.4672 C.2       1 UNK        -0.4550 
      8 C8        -14.0351  -23.6411   37.5503 C.ar      1 UNK         0.0000 
      9 C9        -16.9325  -17.6954   37.9696 C.ar      1 UNK        -0.1150 
     10 C10       -15.5412  -22.1374   38.7250 C.ar      1 UNK        -0.1150 
     11 C11       -15.2903  -21.1230   37.8091 C.ar      1 UNK        -0.0383 
     12 C12       -19.2539  -16.9145   38.0736 C.ar      1 UNK         0.0850 
     13 C13       -17.4225  -15.4648   38.8594 C.ar      1 UNK         0.0850 
     14 C14       -13.3844  -24.9419   37.4069 C.2       1 UNK         0.3480 
     15 C15       -12.2684  -26.7622   36.8984 C.2       1 UNK         0.3430 
     16 C16       -15.9224  -18.7388   37.5862 C.2       1 UNK         0.6150 
     17 C17       -16.5160  -21.6928   39.7747 C.3       1 UNK        -0.0050 
     18 C18       -16.9095  -20.2751   39.3019 C.3       1 UNK        -0.0500 
     19 C19       -11.3943  -27.8026   36.2678 C.3       1 UNK        -0.0650 
     20 C20       -21.5526  -16.2183   38.0678 C.3       1 UNK         0.1100 
     21 C21       -17.7996  -13.2644   39.7507 C.3       1 UNK         0.1100 
     22 N22       -12.9232  -27.0523   38.0075 N.2       1 UNK        -0.4130 
     23 N23       -16.0507  -19.9724   38.1412 N.am      1 UNK        -0.0317 
     24 O24       -15.0136  -18.4166   36.8212 O.2       1 UNK        -0.5000 
     25 O25       -13.6392  -25.8974   38.3405 O.3       1 UNK        -0.1220 
     26 O26       -20.5735  -17.2149   37.8154 O.3       1 UNK        -0.2850 
     27 O27       -16.9028  -14.3076   39.3981 O.3       1 UNK        -0.2850 
     28 H28       -13.1077  -22.7749   35.7912 H         1 UNK         0.1150 
     29 H29       -14.2018  -20.5751   35.9984 H         1 UNK         0.1150 
     30 H30       -15.1407  -24.1686   39.3487 H         1 UNK         0.1150 
     31 H31       -18.6507  -18.8205   37.2854 H         1 UNK         0.1150 
     32 H32       -15.4425  -16.2920   38.6575 H         1 UNK         0.1150 
     33 H33       -19.5202  -14.9374   38.9087 H         1 UNK         0.1150 
     34 H34       -12.1294  -24.9189   35.6035 H         1 UNK         0.1840 
     35 H35       -16.0284  -21.6725   40.7501 H         1 UNK         0.0600 
     36 H36       -17.3737  -22.3645   39.8224 H         1 UNK         0.0600 
     37 H37       -17.9577  -20.2693   39.0043 H         1 UNK         0.0600 
     38 H38       -16.7771  -19.5432   40.1005 H         1 UNK         0.0600 
     39 H39       -10.4924  -27.9622   36.8586 H         1 UNK         0.0600 
     40 H40       -11.9155  -28.7571   36.1908 H         1 UNK         0.0600 
     41 H41       -11.0899  -27.5075   35.2641 H         1 UNK         0.0600 
     42 H42       -21.3592  -15.3136   37.4895 H         1 UNK         0.0300 
     43 H43       -21.6021  -15.9676   39.1282 H         1 UNK         0.0300 
     44 H44       -22.5321  -16.5941   37.7723 H         1 UNK         0.0300 
     45 H45       -18.3550  -12.9057   38.8831 H         1 UNK         0.0300 
     46 H46       -17.2332  -12.4228   40.1495 H         1 UNK         0.0300 
     47 H47       -18.5002  -13.5849   40.5230 H         1 UNK         0.0300 
@<TRIPOS>BOND
     1    1    2 ar   
     2    1    8 ar   
     3    1   28 1    
     4    2   11 ar   
     5    2   29 1    
     6    3    8 ar   
     7    3   10 ar   
     8    3   30 1    
     9    4    9 ar   
    10    4   12 ar   
    11    4   31 1    
    12    5    9 ar   
    13    5   13 ar   
    14    5   32 1    
    15    6   12 ar   
    16    6   13 ar   
    17    6   33 1    
    18    7   14 2    
    19    7   15 1    
    20    7   34 1    
    21    8   14 1    
    22    9   16 1    
    23   10   11 ar   
    24   10   17 1    
    25   11   23 1    
    26   12   26 1    
    27   13   27 1    
    28   14   25 1    
    29   15   19 1    
    30   15   22 2    
    31   16   23 am   BACKBONE|DICT|INTERRES
    32   16   24 2    
    33   17   18 1    
    34   17   35 1    
    35   17   36 1    
    36   18   23 1    
    37   18   37 1    
    38   18   38 1    
    39   19   39 1    
    40   19   40 1    
    41   19   41 1    
    42   20   26 1    
    43   20   42 1    
    44   20   43 1    
    45   20   44 1    
    46   21   27 1    
    47   21   45 1    
    48   21   46 1    
    49   21   47 1    
    50   22   25 1    
@<TRIPOS>SUBSTRUCTURE
     1 UNK         1 GROUP             0       ****    0 ROOT    
@<TRIPOS>MOLECULE
ZINC65321121_9
51   53    1
SMALL
USER_CHARGES


@<TRIPOS>ATOM
      1 C1        -10.0834  -18.6735   38.2524 C.ar      1 UNK        -0.1150 
      2 C2        -11.3610  -16.9178   37.1424 C.ar      1 UNK        -0.1150 
      3 C3         -9.3534  -18.8910   37.0678 C.ar      1 UNK        -0.1150 
      4 C4        -10.6310  -17.1360   35.9584 C.ar      1 UNK        -0.1150 
      5 C5        -14.3578  -13.6134   37.8242 C.ar      1 UNK        -0.1150 
      6 C6        -12.9964  -11.7147   38.4766 C.ar      1 UNK        -0.1150 
      7 C7        -11.0889  -17.6833   38.2961 C.ar      1 UNK         0.0000 
      8 C8        -13.2166  -13.1038   38.4734 C.ar      1 UNK        -0.1150 
      9 C9         -9.6238  -18.1213   35.9183 C.ar      1 UNK        -0.1150 
     10 C10       -15.2948  -12.7620   37.2119 C.ar      1 UNK         0.0850 
     11 C11       -13.9202  -10.8258   37.8748 C.ar      1 UNK         0.0850 
     12 C12       -15.0970  -11.3492   37.2657 C.ar      1 UNK         0.0850 
     13 C13       -11.8567  -17.4569   39.5352 C.2       1 UNK         0.0000 
     14 C14       -12.4251  -18.4021   40.2876 C.2       1 UNK         0.1225 
     15 C15       -12.2088  -14.0195   39.1015 C.2       1 UNK         0.6150 
     16 C16       -11.9135  -16.1669   40.3002 C.3       1 UNK         0.2625 
     17 C17        -8.8383  -18.3553   34.6446 C.3       1 UNK        -0.0650 
     18 C18       -12.5553  -19.8857   40.0098 C.3       1 UNK        -0.1800 
     19 C19       -17.2006  -12.7500   35.7062 C.3       1 UNK         0.1100 
     20 C20       -12.5114   -8.9321   38.3809 C.3       1 UNK         0.1100 
     21 C21       -16.4798   -9.4131   37.4882 C.3       1 UNK         0.1100 
     22 N22       -12.9070  -17.8128   41.4549 N.2       1 UNK        -0.1225 
     23 N23       -12.6351  -16.5918   41.5213 N.2       1 UNK        -0.1225 
     24 N24       -12.7034  -15.1425   39.6325 N.am      1 UNK        -0.5000 
     25 O25       -11.0203  -13.7130   39.1524 O.2       1 UNK        -0.5000 
     26 O26       -16.3558  -13.4254   36.6252 O.3       1 UNK        -0.2850 
     27 O27       -13.7118   -9.4609   37.8360 O.3       1 UNK        -0.2850 
     28 O28       -16.0338  -10.5102   36.7018 O.3       1 UNK        -0.2850 
     29 H29        -9.8586  -19.2641   39.1285 H         1 UNK         0.1150 
     30 H30       -12.1332  -16.1642   37.1501 H         1 UNK         0.1150 
     31 H31        -8.5833  -19.6486   37.0471 H         1 UNK         0.1150 
     32 H32       -10.8489  -16.5423   35.0822 H         1 UNK         0.1150 
     33 H33       -14.5266  -14.6787   37.7698 H         1 UNK         0.1150 
     34 H34       -12.0950  -11.3550   38.9499 H         1 UNK         0.1150 
     35 H35       -10.9087  -15.8293   40.5633 H         1 UNK         0.0600 
     36 H36        -9.2957  -19.1548   34.0615 H         1 UNK         0.0600 
     37 H37        -8.8112  -17.4543   34.0308 H         1 UNK         0.0600 
     38 H38        -7.8095  -18.6380   34.8698 H         1 UNK         0.0600 
     39 H39       -11.6867  -20.4209   40.3930 H         1 UNK         0.0600 
     40 H40       -12.6373  -20.0753   38.9391 H         1 UNK         0.0600 
     41 H41       -13.4459  -20.2860   40.4946 H         1 UNK         0.0600 
     42 H42       -16.6299  -12.2113   34.9485 H         1 UNK         0.0300 
     43 H43       -17.8767  -12.0644   36.2181 H         1 UNK         0.0300 
     44 H44       -17.8177  -13.4828   35.1868 H         1 UNK         0.0300 
     45 H45       -12.5003   -7.8512   38.2419 H         1 UNK         0.0300 
     46 H46       -11.6318   -9.3364   37.8780 H         1 UNK         0.0300 
     47 H47       -12.4402   -9.1259   39.4520 H         1 UNK         0.0300 
     48 H48       -16.3936   -9.6020   38.5596 H         1 UNK         0.0300 
     49 H49       -17.5310   -9.2235   37.2716 H         1 UNK         0.0300 
     50 H50       -15.9290   -8.5058   37.2405 H         1 UNK         0.0300 
     51 H51       -13.7009  -15.2764   39.6034 H         1 UNK         0.3000 
@<TRIPOS>BOND
     1    1    3 ar   
     2    1    7 ar   
     3    1   29 1    
     4    2    4 ar   
     5    2    7 ar   
     6    2   30 1    
     7    3    9 ar   
     8    3   31 1    
     9    4    9 ar   
    10    4   32 1    
    11    5    8 ar   
    12    5   10 ar   
    13    5   33 1    
    14    6    8 ar   
    15    6   11 ar   
    16    6   34 1    
    17    7   13 1    
    18    8   15 1    
    19    9   17 1    
    20   10   12 ar   
    21   10   26 1    
    22   11   12 ar   
    23   11   27 1    
    24   12   28 1    
    25   13   14 2    
    26   13   16 1    
    27   14   18 1    
    28   14   22 1    
    29   15   24 am   BACKBONE|DICT|INTERRES
    30   15   25 2    
    31   16   23 1    
    32   16   24 1    
    33   16   35 1    
    34   17   36 1    
    35   17   37 1    
    36   17   38 1    
    37   18   39 1    
    38   18   40 1    
    39   18   41 1    
    40   19   26 1    
    41   19   42 1    
    42   19   43 1    
    43   19   44 1    
    44   20   27 1    
    45   20   45 1    
    46   20   46 1    
    47   20   47 1    
    48   21   28 1    
    49   21   48 1    
    50   21   49 1    
    51   21   50 1    
    52   22   23 2    
    53   24   51 1    
@<TRIPOS>SUBSTRUCTURE
     1 UNK         1 GROUP             0       ****    0 ROOT    
@<TRIPOS>MOLECULE
ZINC65321132_43
47   49    1
SMALL
USER_CHARGES


@<TRIPOS>ATOM
      1 C1        -10.1256  -18.2690   37.9560 C.ar      1 UNK        -0.1150 
      2 C2        -10.8333  -16.1200   37.0507 C.ar      1 UNK        -0.1150 
      3 C3        -13.2886  -12.4310   37.8068 C.ar      1 UNK        -0.1150 
      4 C4         -9.3876  -18.5199   36.7833 C.ar      1 UNK        -0.1150 
      5 C5        -10.0948  -16.3707   35.8783 C.ar      1 UNK        -0.1150 
      6 C6        -14.0493  -11.3823   37.2592 C.ar      1 UNK        -0.1150 
      7 C7        -12.0422  -10.8175   39.1203 C.ar      1 UNK        -0.1150 
      8 C8        -10.8541  -17.0670   38.0973 C.ar      1 UNK         0.0000 
      9 C9        -12.2819  -12.1551   38.7535 C.ar      1 UNK        -0.1150 
     10 C10        -9.3694  -17.5715   35.7414 C.ar      1 UNK        -0.1150 
     11 C11       -13.8257  -10.0318   37.6367 C.ar      1 UNK         0.0850 
     12 C12       -12.8012   -9.7533   38.5930 C.ar      1 UNK         0.0850 
     13 C13       -11.6344  -16.8020   39.3241 C.2       1 UNK         0.0000 
     14 C14       -12.3995  -17.6799   39.9796 C.2       1 UNK         0.1225 
     15 C15       -11.4417  -13.2512   39.3384 C.2       1 UNK         0.6150 
     16 C16       -11.5018  -15.5804   40.1865 C.3       1 UNK         0.2625 
     17 C17        -8.5700  -17.8470   34.4847 C.3       1 UNK        -0.0650 
     18 C18       -12.7927  -19.0879   39.5814 C.3       1 UNK        -0.1800 
     19 C19       -15.5620   -9.2828   36.1279 C.3       1 UNK         0.1100 
     20 C20       -13.2217   -7.3642   38.7925 C.3       1 UNK         0.1100 
     21 N21       -12.8163  -17.1026   41.1773 N.2       1 UNK        -0.1225 
     22 N22       -12.3321  -15.9610   41.3516 N.2       1 UNK        -0.1225 
     23 N23       -12.0901  -14.3950   39.5796 N.am      1 UNK        -0.5000 
     24 O24       -10.2573  -13.0722   39.6091 O.2       1 UNK        -0.5000 
     25 O25       -14.5605   -8.9964   37.0933 O.3       1 UNK        -0.2850 
     26 O26       -12.4398   -8.5117   39.0811 O.3       1 UNK        -0.2850 
     27 H27       -10.1151  -19.0013   38.7495 H         1 UNK         0.1150 
     28 H28       -11.3830  -15.1954   37.1313 H         1 UNK         0.1150 
     29 H29       -13.4770  -13.4433   37.4803 H         1 UNK         0.1150 
     30 H30        -8.8308  -19.4413   36.6892 H         1 UNK         0.1150 
     31 H31       -10.0874  -15.6340   35.0880 H         1 UNK         0.1150 
     32 H32       -14.8035  -11.6488   36.5358 H         1 UNK         0.1150 
     33 H33       -11.2595  -10.5979   39.8330 H         1 UNK         0.1150 
     34 H34       -10.4643  -15.4402   40.4980 H         1 UNK         0.0600 
     35 H35        -9.0083  -18.6790   33.9330 H         1 UNK         0.0600 
     36 H36        -8.5468  -16.9771   33.8276 H         1 UNK         0.0600 
     37 H37        -7.5414  -18.1053   34.7380 H         1 UNK         0.0600 
     38 H38       -12.0436  -19.8027   39.9208 H         1 UNK         0.0600 
     39 H39       -12.8941  -19.1721   38.4992 H         1 UNK         0.0600 
     40 H40       -13.7480  -19.3557   40.0335 H         1 UNK         0.0600 
     41 H41       -16.0277   -8.3501   35.8100 H         1 UNK         0.0300 
     42 H42       -16.3471   -9.9164   36.5422 H         1 UNK         0.0300 
     43 H43       -15.1394   -9.7567   35.2412 H         1 UNK         0.0300 
     44 H44       -14.2663   -7.5063   39.0720 H         1 UNK         0.0300 
     45 H45       -13.1512   -7.0878   37.7401 H         1 UNK         0.0300 
     46 H46       -12.8433   -6.5231   39.3728 H         1 UNK         0.0300 
     47 H47       -13.0791  -14.4148   39.3957 H         1 UNK         0.3000 
@<TRIPOS>BOND
     1    1    4 ar   
     2    1    8 ar   
     3    1   27 1    
     4    2    5 ar   
     5    2    8 ar   
     6    2   28 1    
     7    3    6 ar   
     8    3    9 ar   
     9    3   29 1    
    10    4   10 ar   
    11    4   30 1    
    12    5   10 ar   
    13    5   31 1    
    14    6   11 ar   
    15    6   32 1    
    16    7    9 ar   
    17    7   12 ar   
    18    7   33 1    
    19    8   13 1    
    20    9   15 1    
    21   10   17 1    
    22   11   12 ar   
    23   11   25 1    
    24   12   26 1    
    25   13   14 2    
    26   13   16 1    
    27   14   18 1    
    28   14   21 1    
    29   15   23 am   BACKBONE|DICT|INTERRES
    30   15   24 2    
    31   16   22 1    
    32   16   23 1    
    33   16   34 1    
    34   17   35 1    
    35   17   36 1    
    36   17   37 1    
    37   18   38 1    
    38   18   39 1    
    39   18   40 1    
    40   19   25 1    
    41   19   41 1    
    42   19   42 1    
    43   19   43 1    
    44   20   26 1    
    45   20   44 1    
    46   20   45 1    
    47   20   46 1    
    48   21   22 2    
    49   23   47 1    
@<TRIPOS>SUBSTRUCTURE
     1 UNK         1 GROUP             0       ****    0 ROOT    
@<TRIPOS>MOLECULE
ZINC65321134_43
47   49    1
SMALL
USER_CHARGES


@<TRIPOS>ATOM
      1 C1         -9.9517  -18.5097   38.0820 C.ar      1 UNK        -0.1150 
      2 C2        -10.9321  -16.4875   37.1363 C.ar      1 UNK        -0.1150 
      3 C3         -9.1729  -18.6757   36.9206 C.ar      1 UNK        -0.1150 
      4 C4        -10.1523  -16.6530   35.9758 C.ar      1 UNK        -0.1150 
      5 C5        -12.0852  -11.3336   39.0559 C.ar      1 UNK        -0.1150 
      6 C6        -13.6831  -12.9429   38.1614 C.ar      1 UNK        -0.1150 
      7 C7        -14.0867  -10.5539   37.9207 C.ar      1 UNK        -0.1150 
      8 C8        -10.8335  -17.4127   38.1969 C.ar      1 UNK         0.0000 
      9 C9        -12.4831  -12.6713   38.8574 C.ar      1 UNK        -0.1150 
     10 C10        -9.2693  -17.7460   35.8653 C.ar      1 UNK        -0.1150 
     11 C11       -12.8775  -10.2646   38.5989 C.ar      1 UNK         0.0850 
     12 C12       -14.4962  -11.8826   37.6929 C.ar      1 UNK         0.0850 
     13 C13       -11.6514  -17.2414   39.4131 C.2       1 UNK         0.0000 
     14 C14       -12.3676  -18.1962   40.0120 C.2       1 UNK         0.1225 
     15 C15       -11.6052  -13.7837   39.3465 C.2       1 UNK         0.6150 
     16 C16       -11.6079  -16.0562   40.3344 C.3       1 UNK         0.2625 
     17 C17        -8.4304  -17.9205   34.6165 C.3       1 UNK        -0.0650 
     18 C18       -12.6472  -19.6093   39.5425 C.3       1 UNK        -0.1800 
     19 C19       -13.1847   -7.8936   38.3902 C.3       1 UNK         0.1100 
     20 C20       -16.1322  -13.3823   36.7704 C.3       1 UNK         0.1100 
     21 N21       -12.8446  -17.7024   41.2244 N.2       1 UNK        -0.1225 
     22 N22       -12.4368  -16.5419   41.4610 N.2       1 UNK        -0.1225 
     23 N23       -12.2489  -14.8721   39.7809 N.am      1 UNK        -0.5000 
     24 O24       -10.3834  -13.6646   39.3764 O.2       1 UNK        -0.5000 
     25 O25       -12.4115   -8.9924   38.8492 O.3       1 UNK        -0.2850 
     26 O26       -15.6826  -12.0576   37.0139 O.3       1 UNK        -0.2850 
     27 H27        -9.8582  -19.2233   38.8874 H         1 UNK         0.1150 
     28 H28       -11.6061  -15.6475   37.1984 H         1 UNK         0.1150 
     29 H29        -8.4980  -19.5164   36.8469 H         1 UNK         0.1150 
     30 H30       -10.2341  -15.9346   35.1725 H         1 UNK         0.1150 
     31 H31       -11.1571  -11.1215   39.5689 H         1 UNK         0.1150 
     32 H32       -13.9615  -13.9698   37.9834 H         1 UNK         0.1150 
     33 H33       -14.7256   -9.7659   37.5541 H         1 UNK         0.1150 
     34 H34       -10.5882  -15.8688   40.6784 H         1 UNK         0.0600 
     35 H35        -8.9900  -18.4720   33.8609 H         1 UNK         0.0600 
     36 H36        -8.1503  -16.9524   34.1997 H         1 UNK         0.0600 
     37 H37        -7.5138  -18.4694   34.8344 H         1 UNK         0.0600 
     38 H38       -11.8710  -20.2870   39.8971 H         1 UNK         0.0600 
     39 H39       -12.6825  -19.6586   38.4538 H         1 UNK         0.0600 
     40 H40       -13.6060  -19.9548   39.9294 H         1 UNK         0.0600 
     41 H41       -14.1733   -7.8819   38.8511 H         1 UNK         0.0300 
     42 H42       -13.2908   -7.9067   37.3045 H         1 UNK         0.0300 
     43 H43       -12.6845   -6.9638   38.6607 H         1 UNK         0.0300 
     44 H44       -17.0794  -13.3462   36.2322 H         1 UNK         0.0300 
     45 H45       -16.3036  -13.9224   37.7024 H         1 UNK         0.0300 
     46 H46       -15.4243  -13.9376   36.1536 H         1 UNK         0.0300 
     47 H47       -13.2547  -14.8474   39.7917 H         1 UNK         0.3000 
@<TRIPOS>BOND
     1    1    3 ar   
     2    1    8 ar   
     3    1   27 1    
     4    2    4 ar   
     5    2    8 ar   
     6    2   28 1    
     7    3   10 ar   
     8    3   29 1    
     9    4   10 ar   
    10    4   30 1    
    11    5    9 ar   
    12    5   11 ar   
    13    5   31 1    
    14    6    9 ar   
    15    6   12 ar   
    16    6   32 1    
    17    7   11 ar   
    18    7   12 ar   
    19    7   33 1    
    20    8   13 1    
    21    9   15 1    
    22   10   17 1    
    23   11   25 1    
    24   12   26 1    
    25   13   14 2    
    26   13   16 1    
    27   14   18 1    
    28   14   21 1    
    29   15   23 am   BACKBONE|DICT|INTERRES
    30   15   24 2    
    31   16   22 1    
    32   16   23 1    
    33   16   34 1    
    34   17   35 1    
    35   17   36 1    
    36   17   37 1    
    37   18   38 1    
    38   18   39 1    
    39   18   40 1    
    40   19   25 1    
    41   19   41 1    
    42   19   42 1    
    43   19   43 1    
    44   20   26 1    
    45   20   44 1    
    46   20   45 1    
    47   20   46 1    
    48   21   22 2    
    49   23   47 1    
@<TRIPOS>SUBSTRUCTURE
     1 UNK         1 GROUP             0       ****    0 ROOT    
@<TRIPOS>MOLECULE
ZINC65609580_102
44   46    1
SMALL
USER_CHARGES


@<TRIPOS>ATOM
      1 C1         -4.0120  -10.4248   35.7439 C.ar      1 UNK        -0.3200 
      2 C2         -8.1224   -5.7755   38.6711 C.ar      1 UNK        -0.1150 
      3 C3         -6.2624   -4.3143   39.2534 C.ar      1 UNK        -0.1150 
      4 C4         -4.0414   -9.0365   35.4388 C.ar      1 UNK         0.2660 
      5 C5         -4.2275  -10.4691   37.0920 C.ar      1 UNK         0.0360 
      6 C6         -6.9927   -5.4982   39.4722 C.ar      1 UNK        -0.1150 
      7 C7         -8.4949   -4.9072   37.6145 C.ar      1 UNK         0.0850 
      8 C8         -7.7208   -3.7438   37.3781 C.ar      1 UNK         0.0850 
      9 C9         -6.6207   -3.4432   38.2107 C.ar      1 UNK         0.1800 
     10 C10        -6.6034   -6.4067   40.6019 C.2       1 UNK         0.6150 
     11 C11        -4.5874   -9.0464   41.3801 C.3       1 UNK        -0.1200 
     12 C12        -4.1880   -9.5953   39.9982 C.3       1 UNK        -0.1200 
     13 C13        -6.0835   -8.6808   41.4120 C.3       1 UNK        -0.0500 
     14 C14        -6.1365   -8.3013   39.0080 C.3       1 UNK        -0.0500 
     15 C15        -4.6399   -8.6466   38.8648 C.3       1 UNK         0.0625 
     16 C16       -10.3879   -6.2774   37.0321 C.3       1 UNK         0.1100 
     17 C17        -7.8036   -3.3835   35.0624 C.3       1 UNK         0.1100 
     18 N18        -4.2603   -8.2919   36.5094 N.2       1 UNK        -0.5310 
     19 N19        -4.3554   -9.1658   37.5337 N.pl3     1 UNK         0.0695 
     20 N20        -6.3722   -7.7185   40.3392 N.am      1 UNK        -0.1400 
     21 O21        -6.5095   -5.9272   41.7306 O.2       1 UNK        -0.5000 
     22 O22        -9.5904   -5.1254   36.8042 O.3       1 UNK        -0.2850 
     23 O23        -8.0397   -2.8729   36.3654 O.3       1 UNK        -0.2850 
     24 Cl24       -5.6879   -2.0133   37.9490 Cl        1 UNK        -0.1800 
     25 H25        -3.8610  -11.2568   35.0726 H         1 UNK         0.1500 
     26 H26        -8.6905   -6.6670   38.8886 H         1 UNK         0.1150 
     27 H27        -5.4184   -4.0742   39.8845 H         1 UNK         0.1150 
     28 H28        -3.9189   -8.5515   34.4809 H         1 UNK         0.0720 
     29 H29        -4.2970  -11.3150   37.7591 H         1 UNK         0.1350 
     30 H30        -4.3622   -9.7795   42.1555 H         1 UNK         0.0600 
     31 H31        -3.9918   -8.1614   41.6115 H         1 UNK         0.0600 
     32 H32        -3.1092   -9.7504   39.9531 H         1 UNK         0.0600 
     33 H33        -4.6510  -10.5743   39.8754 H         1 UNK         0.0600 
     34 H34        -6.6950   -9.5725   41.2691 H         1 UNK         0.0600 
     35 H35        -6.3526   -8.2963   42.3979 H         1 UNK         0.0600 
     36 H36        -6.4166   -7.6442   38.1867 H         1 UNK         0.0600 
     37 H37        -6.7467   -9.1972   38.8897 H         1 UNK         0.0600 
     38 H38        -4.0690   -7.7209   38.9656 H         1 UNK         0.0600 
     39 H39       -11.2079   -6.2920   36.3143 H         1 UNK         0.0300 
     40 H40       -10.8257   -6.2692   38.0310 H         1 UNK         0.0300 
     41 H41        -9.8126   -7.1938   36.8941 H         1 UNK         0.0300 
     42 H42        -7.8879   -2.5740   34.3377 H         1 UNK         0.0300 
     43 H43        -8.5262   -4.1496   34.7834 H         1 UNK         0.0300 
     44 H44        -6.7997   -3.8021   34.9764 H         1 UNK         0.0300 
@<TRIPOS>BOND
     1    1    4 ar   
     2    1    5 ar   
     3    1   25 1    
     4    2    6 ar   
     5    2    7 ar   
     6    2   26 1    
     7    3    6 ar   
     8    3    9 ar   
     9    3   27 1    
    10    4   18 ar   
    11    4   28 1    
    12    5   19 ar   
    13    5   29 1    
    14    6   10 1    
    15    7    8 ar   
    16    7   22 1    
    17    8    9 ar   
    18    8   23 1    
    19    9   24 1    
    20   10   20 am   BACKBONE|DICT|INTERRES
    21   10   21 2    
    22   11   12 1    
    23   11   13 1    
    24   11   30 1    
    25   11   31 1    
    26   12   15 1    
    27   12   32 1    
    28   12   33 1    
    29   13   20 1    
    30   13   34 1    
    31   13   35 1    
    32   14   15 1    
    33   14   20 1    
    34   14   36 1    
    35   14   37 1    
    36   15   19 1    
    37   15   38 1    
    38   16   22 1    
    39   16   39 1    
    40   16   40 1    
    41   16   41 1    
    42   17   23 1    
    43   17   42 1    
    44   17   43 1    
    45   17   44 1    
    46   18   19 ar   
@<TRIPOS>SUBSTRUCTURE
     1 UNK         1 GROUP             0       ****    0 ROOT    
@<TRIPOS>MOLECULE
ZINC66688148_42
48   50    1
SMALL
USER_CHARGES


@<TRIPOS>ATOM
      1 C1        -11.9557  -15.4440   36.3899 C.ar      1 UNK        -0.1150 
      2 C2        -11.4847  -15.8515   35.1263 C.ar      1 UNK        -0.1150 
      3 C3        -14.0327  -12.5671   38.7501 C.ar      1 UNK        -0.1150 
      4 C4        -12.8248  -10.6099   39.5546 C.ar      1 UNK        -0.1150 
      5 C5        -10.4908  -17.0752   37.4576 C.ar      1 UNK        -0.1150 
      6 C6        -13.1740  -11.9664   39.6932 C.ar      1 UNK        -0.1150 
      7 C7        -11.4650  -16.0585   37.5621 C.ar      1 UNK        -0.0418 
      8 C8        -14.1198  -10.4820   37.4909 C.ar      1 UNK        -0.1150 
      9 C9        -14.5047  -11.8363   37.6351 C.ar      1 UNK         0.0850 
     10 C10       -13.2845   -9.8571   38.4478 C.ar      1 UNK         0.0850 
     11 C11       -10.5183  -16.8702   35.0264 C.ar      1 UNK         0.2200 
     12 C12       -10.0190  -17.4825   36.1946 C.ar      1 UNK         0.1800 
     13 C13       -12.6606  -12.7504   40.8645 C.2       1 UNK         0.6150 
     14 C14       -11.5702  -14.8274   41.6518 C.3       1 UNK        -0.0500 
     15 C15       -11.3510  -14.2505   39.3222 C.3       1 UNK        -0.0500 
     16 C16       -12.1662  -16.1833   41.2360 C.3       1 UNK         0.1400 
     17 C17       -11.9707  -15.6021   38.9206 C.3       1 UNK         0.2118 
     18 C18       -14.6122   -9.6829   36.2936 C.3       1 UNK        -0.0650 
     19 C19       -15.8549  -13.6809   36.8756 C.3       1 UNK         0.1100 
     20 C20       -12.1866   -7.8635   39.2302 C.3       1 UNK         0.1100 
     21 N21       -11.9105  -13.8499   40.6170 N.am      1 UNK        -0.1400 
     22 O22       -12.9472  -12.3784   42.0005 O.2       1 UNK        -0.5000 
     23 O23       -11.6756  -16.5503   39.9468 O.3       1 UNK        -0.4000 
     24 O24       -15.3209  -12.3817   36.6651 O.3       1 UNK        -0.2850 
     25 O25       -12.9537   -8.5336   38.2409 O.3       1 UNK        -0.2850 
     26 F26       -10.0735  -17.2519   33.8054 F         1 UNK        -0.2200 
     27 Cl27       -8.8283  -18.7281   36.0899 Cl        1 UNK        -0.1800 
     28 H28       -12.6917  -14.6552   36.4551 H         1 UNK         0.1150 
     29 H29       -11.8599  -15.3836   34.2283 H         1 UNK         0.1150 
     30 H30       -14.3159  -13.5964   38.9024 H         1 UNK         0.1150 
     31 H31       -12.1886  -10.1731   40.3098 H         1 UNK         0.1150 
     32 H32       -10.1004  -17.5497   38.3461 H         1 UNK         0.1150 
     33 H33       -11.9493  -14.5475   42.6364 H         1 UNK         0.0600 
     34 H34       -10.4865  -14.8999   41.7497 H         1 UNK         0.0600 
     35 H35       -10.2687  -14.3517   39.4148 H         1 UNK         0.0600 
     36 H36       -11.5028  -13.5070   38.5402 H         1 UNK         0.0600 
     37 H37       -11.8866  -16.9550   41.9537 H         1 UNK         0.0300 
     38 H38       -13.2566  -16.1412   41.2221 H         1 UNK         0.0300 
     39 H39       -13.0553  -15.5117   38.8451 H         1 UNK         0.0300 
     40 H40       -14.7501   -8.6319   36.5468 H         1 UNK         0.0600 
     41 H41       -13.8884   -9.7473   35.4818 H         1 UNK         0.0600 
     42 H42       -15.5710  -10.0508   35.9293 H         1 UNK         0.0600 
     43 H43       -16.5371  -13.9240   36.0609 H         1 UNK         0.0300 
     44 H44       -16.4221  -13.7342   37.8060 H         1 UNK         0.0300 
     45 H45       -15.0718  -14.4395   36.8849 H         1 UNK         0.0300 
     46 H46       -11.1969   -8.3090   39.3374 H         1 UNK         0.0300 
     47 H47       -12.6930   -7.8660   40.1962 H         1 UNK         0.0300 
     48 H48       -12.0485   -6.8235   38.9342 H         1 UNK         0.0300 
@<TRIPOS>BOND
     1    1    2 ar   
     2    1    7 ar   
     3    1   28 1    
     4    2   11 ar   
     5    2   29 1    
     6    3    6 ar   
     7    3    9 ar   
     8    3   30 1    
     9    4    6 ar   
    10    4   10 ar   
    11    4   31 1    
    12    5    7 ar   
    13    5   12 ar   
    14    5   32 1    
    15    6   13 1    
    16    7   17 1    
    17    8    9 ar   
    18    8   10 ar   
    19    8   18 1    
    20    9   24 1    
    21   10   25 1    
    22   11   12 ar   
    23   11   26 1    
    24   12   27 1    
    25   13   21 am   BACKBONE|DICT|INTERRES
    26   13   22 2    
    27   14   16 1    
    28   14   21 1    
    29   14   33 1    
    30   14   34 1    
    31   15   17 1    
    32   15   21 1    
    33   15   35 1    
    34   15   36 1    
    35   16   23 1    
    36   16   37 1    
    37   16   38 1    
    38   17   23 1    
    39   17   39 1    
    40   18   40 1    
    41   18   41 1    
    42   18   42 1    
    43   19   24 1    
    44   19   43 1    
    45   19   44 1    
    46   19   45 1    
    47   20   25 1    
    48   20   46 1    
    49   20   47 1    
    50   20   48 1    
@<TRIPOS>SUBSTRUCTURE
     1 UNK         1 GROUP             0       ****    0 ROOT    
@<TRIPOS>MOLECULE
ZINC66688150_97
48   50    1
SMALL
USER_CHARGES


@<TRIPOS>ATOM
      1 C1        -12.9134  -18.4635   36.6331 C.ar      1 UNK        -0.1150 
      2 C2        -12.8131  -19.0202   35.3426 C.ar      1 UNK        -0.1150 
      3 C3        -17.1570  -15.5543   38.8850 C.ar      1 UNK        -0.1150 
      4 C4        -15.6386  -13.6742   39.1848 C.ar      1 UNK        -0.1150 
      5 C5        -14.0313  -20.4850   37.4135 C.ar      1 UNK        -0.1150 
      6 C6        -16.0520  -14.9725   39.5414 C.ar      1 UNK        -0.1150 
      7 C7        -13.5192  -19.1960   37.6762 C.ar      1 UNK        -0.0418 
      8 C8        -17.3772  -13.5756   37.4774 C.ar      1 UNK        -0.1150 
      9 C9        -17.8182  -14.8715   37.8368 C.ar      1 UNK         0.0850 
     10 C10       -16.2900  -12.9661   38.1471 C.ar      1 UNK         0.0850 
     11 C11       -13.3197  -20.3086   35.0863 C.ar      1 UNK         0.2200 
     12 C12       -13.9306  -21.0428   36.1242 C.ar      1 UNK         0.1800 
     13 C13       -15.3470  -15.6899   40.6583 C.2       1 UNK         0.6150 
     14 C14       -14.3504  -17.7319   41.5646 C.3       1 UNK        -0.0500 
     15 C15       -14.8446  -17.6110   39.1324 C.3       1 UNK        -0.0500 
     16 C16       -14.4058  -19.2400   41.2708 C.3       1 UNK         0.1400 
     17 C17       -13.6493  -18.5823   39.0603 C.3       1 UNK         0.2118 
     18 C18       -18.0768  -12.8240   36.3547 C.3       1 UNK        -0.0650 
     19 C19       -19.3243  -16.7146   37.4632 C.3       1 UNK         0.1100 
     20 C20       -14.8792  -11.0396   38.4494 C.3       1 UNK         0.1100 
     21 N21       -14.9185  -16.9582   40.4510 N.am      1 UNK        -0.1400 
     22 O22       -15.1680  -15.0988   41.7224 O.2       1 UNK        -0.5000 
     23 O23       -13.7236  -19.5895   40.0690 O.3       1 UNK        -0.4000 
     24 O24       -18.8798  -15.4063   37.1359 O.3       1 UNK        -0.2850 
     25 O25       -15.9170  -11.7011   37.7411 O.3       1 UNK        -0.2850 
     26 F26       -13.2186  -20.8307   33.8407 F         1 UNK        -0.2200 
     27 Cl27      -14.5640  -22.6208   35.8260 Cl        1 UNK        -0.1800 
     28 H28       -12.5245  -17.4724   36.8189 H         1 UNK         0.1150 
     29 H29       -12.3494  -18.4620   34.5430 H         1 UNK         0.1150 
     30 H30       -17.4836  -16.5318   39.2038 H         1 UNK         0.1150 
     31 H31       -14.8091  -13.2429   39.7254 H         1 UNK         0.1150 
     32 H32       -14.5024  -21.0533   38.2021 H         1 UNK         0.1150 
     33 H33       -14.8975  -17.5335   42.4888 H         1 UNK         0.0600 
     34 H34       -13.3208  -17.4148   41.7372 H         1 UNK         0.0600 
     35 H35       -14.7292  -16.8713   38.3383 H         1 UNK         0.0600 
     36 H36       -15.7735  -18.1481   38.9371 H         1 UNK         0.0600 
     37 H37       -13.9797  -19.8102   42.0967 H         1 UNK         0.0300 
     38 H38       -15.4460  -19.5564   41.1805 H         1 UNK         0.0300 
     39 H39       -12.7353  -18.0163   39.2509 H         1 UNK         0.0300 
     40 H40       -18.0948  -11.7516   36.5487 H         1 UNK         0.0600 
     41 H41       -17.5551  -12.9933   35.4133 H         1 UNK         0.0600 
     42 H42       -19.1119  -13.1428   36.2361 H         1 UNK         0.0600 
     43 H43       -18.5335  -17.4522   37.3206 H         1 UNK         0.0300 
     44 H44       -20.1505  -16.9871   36.8068 H         1 UNK         0.0300 
     45 H45       -19.6895  -16.7672   38.4897 H         1 UNK         0.0300 
     46 H46       -14.7418  -10.0412   38.0341 H         1 UNK         0.0300 
     47 H47       -13.9307  -11.5697   38.3536 H         1 UNK         0.0300 
     48 H48       -15.1264  -10.9247   39.5058 H         1 UNK         0.0300 
@<TRIPOS>BOND
     1    1    2 ar   
     2    1    7 ar   
     3    1   28 1    
     4    2   11 ar   
     5    2   29 1    
     6    3    6 ar   
     7    3    9 ar   
     8    3   30 1    
     9    4    6 ar   
    10    4   10 ar   
    11    4   31 1    
    12    5    7 ar   
    13    5   12 ar   
    14    5   32 1    
    15    6   13 1    
    16    7   17 1    
    17    8    9 ar   
    18    8   10 ar   
    19    8   18 1    
    20    9   24 1    
    21   10   25 1    
    22   11   12 ar   
    23   11   26 1    
    24   12   27 1    
    25   13   21 am   BACKBONE|DICT|INTERRES
    26   13   22 2    
    27   14   16 1    
    28   14   21 1    
    29   14   33 1    
    30   14   34 1    
    31   15   17 1    
    32   15   21 1    
    33   15   35 1    
    34   15   36 1    
    35   16   23 1    
    36   16   37 1    
    37   16   38 1    
    38   17   23 1    
    39   17   39 1    
    40   18   40 1    
    41   18   41 1    
    42   18   42 1    
    43   19   24 1    
    44   19   43 1    
    45   19   44 1    
    46   19   45 1    
    47   20   25 1    
    48   20   46 1    
    49   20   47 1    
    50   20   48 1    
@<TRIPOS>SUBSTRUCTURE
     1 UNK         1 GROUP             0       ****    0 ROOT    
@<TRIPOS>MOLECULE
ZINC67206825_154
44   46    1
SMALL
USER_CHARGES


@<TRIPOS>ATOM
      1 C1        -14.8864  -25.0139   37.6080 C.ar      1 UNK        -0.1150 
      2 C2        -16.1006  -24.3072   37.7153 C.ar      1 UNK        -0.1150 
      3 C3        -21.7260  -18.6619   37.7491 C.ar      1 UNK        -0.1150 
      4 C4        -22.5279  -17.5113   37.6655 C.ar      1 UNK        -0.1150 
      5 C5        -14.7822  -26.3195   38.1250 C.ar      1 UNK        -0.1150 
      6 C6        -17.1085  -26.2240   38.8630 C.ar      1 UNK        -0.1150 
      7 C7        -20.0038  -17.3495   38.8463 C.ar      1 UNK        -0.1150 
      8 C8        -17.2182  -24.9123   38.3439 C.ar      1 UNK         0.0631 
      9 C9        -20.4379  -18.5847   38.3180 C.ar      1 UNK        -0.1150 
     10 C10       -22.0849  -16.2655   38.1506 C.ar      1 UNK         0.0850 
     11 C11       -20.8044  -16.1790   38.7757 C.ar      1 UNK         0.0850 
     12 C12       -15.8907  -26.9214   38.7503 C.ar      1 UNK         0.1800 
     13 C13       -19.6813  -24.6869   39.1461 C.ar      1 UNK        -0.2947 
     14 C14       -20.8096  -23.9424   39.1930 C.ar      1 UNK        -0.1717 
     15 C15       -18.5028  -24.1633   38.4620 C.ar      1 UNK         0.3933 
     16 C16       -20.8869  -22.6197   38.5830 C.ar      1 UNK         0.5567 
     17 C17       -19.5457  -19.7736   38.4477 C.2       1 UNK         0.5850 
     18 C18       -22.5897  -13.8883   38.1672 C.3       1 UNK         0.1100 
     19 C19       -19.1504  -14.9237   40.0164 C.3       1 UNK         0.1100 
     20 C20       -19.6286  -20.8872   37.3851 C.3       1 UNK         0.0800 
     21 N21       -18.5698  -22.9864   37.9220 N.2       1 UNK        -0.2833 
     22 N22       -19.7231  -22.2185   38.0005 N.pl3     1 UNK        -0.1934 
     23 O23       -21.9007  -21.9267   38.5792 O.2       1 UNK        -0.5000 
     24 O24       -18.6816  -19.8542   39.3231 O.2       1 UNK        -0.4700 
     25 O25       -22.9901  -15.2360   37.9761 O.3       1 UNK        -0.2850 
     26 O26       -20.3788  -14.9761   39.3045 O.3       1 UNK        -0.2850 
     27 Cl27      -15.7576  -28.5206   39.3806 Cl        1 UNK        -0.1800 
     28 H28       -14.0334  -24.5532   37.1306 H         1 UNK         0.1150 
     29 H29       -16.1527  -23.3044   37.3147 H         1 UNK         0.1150 
     30 H30       -22.1330  -19.5958   37.3901 H         1 UNK         0.1150 
     31 H31       -23.5104  -17.5823   37.2226 H         1 UNK         0.1150 
     32 H32       -13.8511  -26.8619   38.0439 H         1 UNK         0.1150 
     33 H33       -17.9307  -26.7244   39.3474 H         1 UNK         0.1150 
     34 H34       -19.0290  -17.3252   39.3091 H         1 UNK         0.1150 
     35 H35       -19.6768  -25.6528   39.6216 H         1 UNK         0.1150 
     36 H36       -21.6835  -24.3236   39.6994 H         1 UNK         0.1150 
     37 H37       -22.4516  -13.6613   39.2247 H         1 UNK         0.0300 
     38 H38       -23.3734  -13.2284   37.7957 H         1 UNK         0.0300 
     39 H39       -21.6792  -13.6534   37.6141 H         1 UNK         0.0300 
     40 H40       -18.3030  -15.1550   39.3695 H         1 UNK         0.0300 
     41 H41       -19.0025  -13.9148   40.4007 H         1 UNK         0.0300 
     42 H42       -19.1528  -15.6023   40.8707 H         1 UNK         0.0300 
     43 H43       -20.4517  -20.7399   36.6885 H         1 UNK         0.0600 
     44 H44       -18.7260  -20.8181   36.7777 H         1 UNK         0.0600 
@<TRIPOS>BOND
     1    1    2 ar   
     2    1    5 ar   
     3    1   28 1    
     4    2    8 ar   
     5    2   29 1    
     6    3    4 ar   
     7    3    9 ar   
     8    3   30 1    
     9    4   10 ar   
    10    4   31 1    
    11    5   12 ar   
    12    5   32 1    
    13    6    8 ar   
    14    6   12 ar   
    15    6   33 1    
    16    7    9 ar   
    17    7   11 ar   
    18    7   34 1    
    19    8   15 1    
    20    9   17 1    
    21   10   11 ar   
    22   10   25 1    
    23   11   26 1    
    24   12   27 1    
    25   13   14 ar   
    26   13   15 ar   
    27   13   35 1    
    28   14   16 ar   
    29   14   36 1    
    30   15   21 ar   
    31   16   22 ar   
    32   16   23 2    
    33   17   20 1    
    34   17   24 2    
    35   18   25 1    
    36   18   37 1    
    37   18   38 1    
    38   18   39 1    
    39   19   26 1    
    40   19   40 1    
    41   19   41 1    
    42   19   42 1    
    43   20   22 1    
    44   20   43 1    
    45   20   44 1    
    46   21   22 ar   
@<TRIPOS>SUBSTRUCTURE
     1 UNK         1 GROUP             0       ****    0 ROOT    
@<TRIPOS>MOLECULE
ZINC67901245_69
40   41    1
SMALL
USER_CHARGES


@<TRIPOS>ATOM
      1 C1        -28.6575  -21.7793   38.5096 C.ar      1 UNK        -0.1150 
      2 C2        -27.6566  -19.5754   38.2941 C.ar      1 UNK        -0.1150 
      3 C3        -27.5160  -20.9514   38.5666 C.ar      1 UNK        -0.1150 
      4 C4        -29.9275  -21.2407   38.1965 C.ar      1 UNK         0.0850 
      5 C5        -28.9147  -19.0090   37.9707 C.ar      1 UNK         0.0850 
      6 C6        -30.0610  -19.8554   37.9427 C.ar      1 UNK         0.0850 
      7 C7        -26.1665  -21.4933   38.8952 C.2       1 UNK         0.6250 
      8 C8        -25.3232  -24.8539   37.1560 C.3       1 UNK        -0.1200 
      9 C9        -24.3869  -23.7205   36.8275 C.3       1 UNK        -0.0600 
     10 C10       -24.4105  -24.2973   38.2317 C.3       1 UNK        -0.0765 
     11 C11       -23.1954  -23.9453   35.9214 C.3       1 UNK        -0.1800 
     12 C12       -30.9916  -23.3951   38.3896 C.3       1 UNK         0.1100 
     13 C13       -27.9144  -16.8285   37.6709 C.3       1 UNK         0.1100 
     14 C14       -31.7354  -18.1224   38.0434 C.3       1 UNK         0.1100 
     15 C15       -24.9700  -23.5201   39.4165 C.3       1 UNK         0.2065 
     16 O16       -25.1517  -20.7969   38.9512 O.2       1 UNK        -0.4300 
     17 O17       -31.0782  -22.0018   38.1322 O.3       1 UNK        -0.2850 
     18 O18       -29.0575  -17.6713   37.6564 O.3       1 UNK        -0.2850 
     19 O19       -31.3407  -19.4270   37.6472 O.3       1 UNK        -0.2850 
     20 O20       -26.1733  -22.8243   39.1136 O.3       1 UNK        -0.3300 
     21 H21       -28.5487  -22.8333   38.7102 H         1 UNK         0.1150 
     22 H22       -26.7674  -18.9649   38.3298 H         1 UNK         0.1150 
     23 H23       -25.0861  -25.8397   36.7603 H         1 UNK         0.0600 
     24 H24       -26.3856  -24.6231   37.2084 H         1 UNK         0.0600 
     25 H25       -24.8526  -22.7473   36.6870 H         1 UNK         0.0600 
     26 H26       -23.5580  -24.9191   38.4990 H         1 UNK         0.0600 
     27 H27       -23.4988  -23.8672   34.8771 H         1 UNK         0.0600 
     28 H28       -22.4308  -23.1928   36.1168 H         1 UNK         0.0600 
     29 H29       -22.7606  -24.9320   36.0837 H         1 UNK         0.0600 
     30 H30       -30.6362  -23.5915   39.4020 H         1 UNK         0.0300 
     31 H31       -31.9827  -23.8388   38.2972 H         1 UNK         0.0300 
     32 H32       -30.3398  -23.8943   37.6714 H         1 UNK         0.0300 
     33 H33       -27.4652  -16.7815   38.6638 H         1 UNK         0.0300 
     34 H34       -28.2133  -15.8163   37.3984 H         1 UNK         0.0300 
     35 H35       -27.1670  -17.1558   36.9469 H         1 UNK         0.0300 
     36 H36       -31.4801  -17.3863   37.2808 H         1 UNK         0.0300 
     37 H37       -31.2939  -17.8283   38.9970 H         1 UNK         0.0300 
     38 H38       -32.8182  -18.1009   38.1640 H         1 UNK         0.0300 
     39 H39       -24.1970  -22.8566   39.8073 H         1 UNK         0.0300 
     40 H40       -25.1912  -24.2303   40.2131 H         1 UNK         0.0300 
@<TRIPOS>BOND
     1    1    3 ar   
     2    1    4 ar   
     3    1   21 1    
     4    2    3 ar   
     5    2    5 ar   
     6    2   22 1    
     7    3    7 1    
     8    4    6 ar   
     9    4   17 1    
    10    5    6 ar   
    11    5   18 1    
    12    6   19 1    
    13    7   16 2    
    14    7   20 1    
    15    8    9 1    
    16    8   10 1    
    17    8   23 1    
    18    8   24 1    
    19    9   10 1    
    20    9   11 1    
    21    9   25 1    
    22   10   15 1    
    23   10   26 1    
    24   11   27 1    
    25   11   28 1    
    26   11   29 1    
    27   12   17 1    
    28   12   30 1    
    29   12   31 1    
    30   12   32 1    
    31   13   18 1    
    32   13   33 1    
    33   13   34 1    
    34   13   35 1    
    35   14   19 1    
    36   14   36 1    
    37   14   37 1    
    38   14   38 1    
    39   15   20 1    
    40   15   39 1    
    41   15   40 1    
@<TRIPOS>SUBSTRUCTURE
     1 UNK         1 GROUP             0       ****    0 ROOT    
@<TRIPOS>MOLECULE
ZINC68191457_9
45   47    1
SMALL
USER_CHARGES


@<TRIPOS>ATOM
      1 C1        -10.8418  -13.9832   40.6614 C.ar      1 UNK         0.2270 
      2 C2        -10.1017  -14.5876   39.6348 C.ar      1 UNK        -0.4470 
      3 C3         -7.2239  -14.9078   36.0502 C.ar      1 UNK        -0.3200 
      4 C4        -10.8770  -12.5823   40.7440 C.ar      1 UNK        -0.1120 
      5 C5        -10.1580  -11.8407   39.7759 C.ar      1 UNK         0.3658 
      6 C6         -8.1831  -15.9338   36.2560 C.ar      1 UNK         0.2230 
      7 C7         -7.5554  -13.9444   36.9628 C.ar      1 UNK         0.0560 
      8 C8         -9.4060  -13.7798   38.7113 C.ar      1 UNK         0.6075 
      9 C9        -10.1360  -10.3352   39.7991 C.2       1 UNK         0.6192 
     10 C10       -11.3360   -8.2184   39.3949 C.3       1 UNK        -0.0500 
     11 C11       -12.3898  -10.3623   38.7411 C.3       1 UNK        -0.0500 
     12 C12       -11.6734   -7.7038   37.9799 C.3       1 UNK         0.1700 
     13 C13       -13.4230   -9.3660   38.1764 C.3       1 UNK         0.1700 
     14 C14        -8.3196  -17.2431   35.5412 C.3       1 UNK        -0.0650 
     15 C15        -6.8840  -12.6325   37.2178 C.3       1 UNK        -0.0650 
     16 C16       -12.0162   -6.2116   37.9703 C.3       1 UNK        -0.1800 
     17 C17       -14.4893  -10.0536   37.3198 C.3       1 UNK        -0.1800 
     18 N18        -9.4474  -12.4340   38.7908 N.ar      1 UNK        -0.6780 
     19 N19        -9.0342  -15.6315   37.2169 N.2       1 UNK        -0.5310 
     20 N20        -8.6678  -14.4034   37.6630 N.pl3     1 UNK         0.0695 
     21 N21       -11.2457   -9.6837   39.3755 N.am      1 UNK        -0.1400 
     22 O22        -9.1224   -9.7542   40.1939 O.2       1 UNK        -0.5000 
     23 O23       -12.7535   -8.4099   37.3638 O.3       1 UNK        -0.4000 
     24 Cl24      -11.7783  -11.8316   42.0165 Cl        1 UNK        -0.1800 
     25 H25       -11.3762  -14.5883   41.3789 H         1 UNK         0.0650 
     26 H26       -10.0632  -15.6639   39.5510 H         1 UNK         0.1550 
     27 H27        -6.4118  -14.8834   35.3392 H         1 UNK         0.1500 
     28 H28       -10.4171   -7.7401   39.7385 H         1 UNK         0.0600 
     29 H29       -12.1027   -7.9251   40.1129 H         1 UNK         0.0600 
     30 H30       -12.8820  -11.0239   39.4545 H         1 UNK         0.0600 
     31 H31       -12.0192  -10.9866   37.9255 H         1 UNK         0.0600 
     32 H32       -10.8008   -7.8580   37.3433 H         1 UNK         0.0300 
     33 H33       -13.9277   -8.8463   38.9930 H         1 UNK         0.0300 
     34 H34        -8.2542  -18.0775   36.2393 H         1 UNK         0.0600 
     35 H35        -9.2800  -17.3092   35.0301 H         1 UNK         0.0600 
     36 H36        -7.5351  -17.3701   34.7957 H         1 UNK         0.0600 
     37 H37        -7.5156  -11.8049   36.8943 H         1 UNK         0.0600 
     38 H38        -6.6710  -12.5013   38.2789 H         1 UNK         0.0600 
     39 H39        -5.9403  -12.5643   36.6774 H         1 UNK         0.0600 
     40 H40       -12.2039   -5.8647   36.9539 H         1 UNK         0.0600 
     41 H41       -11.1995   -5.6161   38.3788 H         1 UNK         0.0600 
     42 H42       -12.9103   -6.0086   38.5601 H         1 UNK         0.0600 
     43 H43       -15.2045   -9.3259   36.9359 H         1 UNK         0.0600 
     44 H44       -15.0441  -10.7930   37.8975 H         1 UNK         0.0600 
     45 H45       -14.0419  -10.5601   36.4641 H         1 UNK         0.0600 
@<TRIPOS>BOND
     1    1    2 ar   
     2    1    4 ar   
     3    1   25 1    
     4    2    8 ar   
     5    2   26 1    
     6    3    6 ar   
     7    3    7 ar   
     8    3   27 1    
     9    4    5 ar   
    10    4   24 1    
    11    5    9 1    
    12    5   18 ar   
    13    6   14 1    
    14    6   19 ar   
    15    7   15 1    
    16    7   20 ar   
    17    8   18 ar   
    18    8   20 1    
    19    9   21 am   BACKBONE|DICT|INTERRES
    20    9   22 2    
    21   10   12 1    
    22   10   21 1    
    23   10   28 1    
    24   10   29 1    
    25   11   13 1    
    26   11   21 1    
    27   11   30 1    
    28   11   31 1    
    29   12   16 1    
    30   12   23 1    
    31   12   32 1    
    32   13   17 1    
    33   13   23 1    
    34   13   33 1    
    35   14   34 1    
    36   14   35 1    
    37   14   36 1    
    38   15   37 1    
    39   15   38 1    
    40   15   39 1    
    41   16   40 1    
    42   16   41 1    
    43   16   42 1    
    44   17   43 1    
    45   17   44 1    
    46   17   45 1    
    47   19   20 ar   
@<TRIPOS>SUBSTRUCTURE
     1 UNK         1 GROUP             0       ****    0 ROOT    
@<TRIPOS>MOLECULE
ZINC68195885_23
45   47    1
SMALL
USER_CHARGES


@<TRIPOS>ATOM
      1 C1         -8.0777  -11.0993   40.4256 C.ar      1 UNK         0.2270 
      2 C2         -7.2416  -11.6569   39.4473 C.ar      1 UNK        -0.4470 
      3 C3         -4.0452  -11.8167   36.1395 C.ar      1 UNK        -0.3200 
      4 C4         -8.1330   -9.7029   40.5612 C.ar      1 UNK        -0.1120 
      5 C5         -7.3321   -8.9177   39.6967 C.ar      1 UNK         0.3658 
      6 C6         -5.0446  -12.8250   36.1689 C.ar      1 UNK         0.2230 
      7 C7         -4.4501  -10.9091   37.0793 C.ar      1 UNK         0.0560 
      8 C8         -6.4724  -10.8072   38.6262 C.ar      1 UNK         0.6075 
      9 C9         -7.3236   -7.4148   39.7806 C.2       1 UNK         0.6192 
     10 C10       -10.7335   -4.5391   36.7893 C.2       1 UNK         0.5000 
     11 C11        -9.5815   -7.3268   38.6562 C.3       1 UNK        -0.0500 
     12 C12        -8.5248   -5.2776   39.4336 C.3       1 UNK        -0.0500 
     13 C13        -9.6364   -6.7585   37.2234 C.3       1 UNK        -0.0500 
     14 C14        -8.5811   -4.7007   38.0049 C.3       1 UNK        -0.0500 
     15 C15        -5.1315  -14.0782   35.3526 C.3       1 UNK        -0.0650 
     16 C16        -3.7822   -9.6390   37.5011 C.3       1 UNK        -0.0650 
     17 C17       -11.8966   -5.2221   36.0727 C.3       1 UNK        -0.1800 
     18 N18        -6.5314   -9.4664   38.7556 N.ar      1 UNK        -0.6780 
     19 N19        -5.9866  -12.5645   37.0549 N.2       1 UNK        -0.5310 
     20 N20        -5.6411  -11.3815   37.6223 N.pl3     1 UNK         0.0695 
     21 N21        -8.4271   -6.7432   39.3616 N.am      1 UNK        -0.1400 
     22 N22        -9.7208   -5.2905   37.2849 N.am      1 UNK        -0.1400 
     23 O23        -6.3170   -6.8454   40.2085 O.2       1 UNK        -0.5000 
     24 O24       -10.7610   -3.3146   36.8927 O.2       1 UNK        -0.5000 
     25 Cl25       -9.1632   -9.0103   41.7666 Cl        1 UNK        -0.1800 
     26 H26        -8.6718  -11.7364   41.0641 H         1 UNK         0.0650 
     27 H27        -7.1855  -12.7282   39.3208 H         1 UNK         0.1550 
     28 H28        -3.1607  -11.7682   35.5222 H         1 UNK         0.1500 
     29 H29       -10.4946   -7.0783   39.1995 H         1 UNK         0.0600 
     30 H30        -9.5585   -8.4145   38.6009 H         1 UNK         0.0600 
     31 H31        -7.6919   -4.8275   39.9771 H         1 UNK         0.0600 
     32 H32        -9.4227   -5.0028   39.9892 H         1 UNK         0.0600 
     33 H33        -8.7368   -7.0382   36.6721 H         1 UNK         0.0600 
     34 H34       -10.4639   -7.2210   36.6873 H         1 UNK         0.0600 
     35 H35        -8.6368   -3.6119   38.0584 H         1 UNK         0.0600 
     36 H36        -7.6594   -4.9251   37.4659 H         1 UNK         0.0600 
     37 H37        -4.8725  -14.9511   35.9516 H         1 UNK         0.0600 
     38 H38        -6.1403  -14.2257   34.9663 H         1 UNK         0.0600 
     39 H39        -4.4519  -14.0425   34.5013 H         1 UNK         0.0600 
     40 H40        -4.3447   -8.7720   37.1543 H         1 UNK         0.0600 
     41 H41        -3.7037   -9.5787   38.5869 H         1 UNK         0.0600 
     42 H42        -2.7752   -9.5713   37.0906 H         1 UNK         0.0600 
     43 H43       -12.4129   -5.9094   36.7426 H         1 UNK         0.0600 
     44 H44       -11.5447   -5.7657   35.1960 H         1 UNK         0.0600 
     45 H45       -12.6196   -4.4786   35.7360 H         1 UNK         0.0600 
@<TRIPOS>BOND
     1    1    2 ar   
     2    1    4 ar   
     3    1   26 1    
     4    2    8 ar   
     5    2   27 1    
     6    3    6 ar   
     7    3    7 ar   
     8    3   28 1    
     9    4    5 ar   
    10    4   25 1    
    11    5    9 1    
    12    5   18 ar   
    13    6   15 1    
    14    6   19 ar   
    15    7   16 1    
    16    7   20 ar   
    17    8   18 ar   
    18    8   20 1    
    19    9   21 am   BACKBONE|DICT|INTERRES
    20    9   23 2    
    21   10   17 1    
    22   10   22 am   BACKBONE|DICT|INTERRES
    23   10   24 2    
    24   11   13 1    
    25   11   21 1    
    26   11   29 1    
    27   11   30 1    
    28   12   14 1    
    29   12   21 1    
    30   12   31 1    
    31   12   32 1    
    32   13   22 1    
    33   13   33 1    
    34   13   34 1    
    35   14   22 1    
    36   14   35 1    
    37   14   36 1    
    38   15   37 1    
    39   15   38 1    
    40   15   39 1    
    41   16   40 1    
    42   16   41 1    
    43   16   42 1    
    44   17   43 1    
    45   17   44 1    
    46   17   45 1    
    47   19   20 ar   
@<TRIPOS>SUBSTRUCTURE
     1 UNK         1 GROUP             0       ****    0 ROOT    
@<TRIPOS>MOLECULE
ZINC69186928_16
47   49    1
SMALL
USER_CHARGES


@<TRIPOS>ATOM
      1 C1         -4.7943   -7.7872   36.8271 C.ar      1 UNK        -0.1150 
      2 C2         -5.1262   -7.3191   38.1111 C.ar      1 UNK        -0.1150 
      3 C3         -8.1357   -6.3643   38.6977 C.ar      1 UNK        -0.1150 
      4 C4         -7.0509   -4.3467   39.5232 C.ar      1 UNK        -0.1150 
      5 C5         -5.4128  -10.0430   37.4941 C.ar      1 UNK        -0.1150 
      6 C6         -7.2479   -5.7402   39.6036 C.ar      1 UNK        -0.1150 
      7 C7         -5.7499   -9.5810   38.7831 C.ar      1 UNK        -0.1150 
      8 C8         -4.9482   -9.1492   36.5107 C.ar      1 UNK        -0.1150 
      9 C9         -5.6449   -8.1988   39.0951 C.ar      1 UNK        -0.0383 
     10 C10        -8.7772   -5.6221   37.6758 C.ar      1 UNK         0.0850 
     11 C11        -8.5416   -4.2285   37.5914 C.ar      1 UNK         0.0850 
     12 C12        -7.6924   -3.5947   38.5239 C.ar      1 UNK         0.1800 
     13 C13        -6.5707   -6.5264   40.6956 C.2       1 UNK         0.6150 
     14 C14        -6.1844  -10.6041   39.8232 C.3       1 UNK        -0.0050 
     15 C15        -6.6547   -9.9856   41.1465 C.3       1 UNK        -0.1200 
     16 C16        -5.8670   -8.7155   41.4947 C.3       1 UNK        -0.0500 
     17 C17        -4.5900   -9.6539   35.1286 C.3       1 UNK        -0.0650 
     18 C18        -9.3256   -2.6837   34.3734 C.3       1 UNK        -0.1800 
     19 C19        -9.7816   -7.5979   36.7410 C.3       1 UNK         0.1100 
     20 C20        -8.6125   -3.6457   35.3245 C.3       1 UNK         0.1400 
     21 N21        -6.0131   -7.7378   40.4069 N.am      1 UNK        -0.0317 
     22 O22        -6.5301   -6.0278   41.8216 O.2       1 UNK        -0.5000 
     23 O23        -9.6368   -6.1854   36.7553 O.3       1 UNK        -0.2850 
     24 O24        -9.1532   -3.4707   36.6243 O.3       1 UNK        -0.2850 
     25 Cl25       -7.4106   -1.8929   38.4371 Cl        1 UNK        -0.1800 
     26 H26        -4.4160   -7.0948   36.0887 H         1 UNK         0.1150 
     27 H27        -4.9780   -6.2703   38.3231 H         1 UNK         0.1150 
     28 H28        -8.3034   -7.4257   38.7991 H         1 UNK         0.1150 
     29 H29        -6.4023   -3.8496   40.2308 H         1 UNK         0.1150 
     30 H30        -5.4996  -11.0953   37.2632 H         1 UNK         0.1150 
     31 H31        -6.9638  -11.2453   39.4096 H         1 UNK         0.0600 
     32 H32        -5.3246  -11.2465   40.0178 H         1 UNK         0.0600 
     33 H33        -7.7087   -9.7182   41.0570 H         1 UNK         0.0600 
     34 H34        -6.5944  -10.7199   41.9506 H         1 UNK         0.0600 
     35 H35        -6.2061   -8.3438   42.4636 H         1 UNK         0.0600 
     36 H36        -4.8078   -8.9464   41.6147 H         1 UNK         0.0600 
     37 H37        -3.5359   -9.9293   35.0905 H         1 UNK         0.0600 
     38 H38        -5.1844  -10.5295   34.8666 H         1 UNK         0.0600 
     39 H39        -4.7724   -8.8867   34.3756 H         1 UNK         0.0600 
     40 H40       -10.3960   -2.8880   34.3465 H         1 UNK         0.0600 
     41 H41        -9.1895   -1.6498   34.6910 H         1 UNK         0.0600 
     42 H42        -8.9392   -2.7792   33.3589 H         1 UNK         0.0600 
     43 H43       -10.4303   -7.8838   35.9131 H         1 UNK         0.0300 
     44 H44       -10.2433   -7.9599   37.6605 H         1 UNK         0.0300 
     45 H45        -8.8223   -8.0973   36.5949 H         1 UNK         0.0300 
     46 H46        -7.5418   -3.4353   35.3339 H         1 UNK         0.0300 
     47 H47        -8.7420   -4.6702   34.9754 H         1 UNK         0.0300 
@<TRIPOS>BOND
     1    1    2 ar   
     2    1    8 ar   
     3    1   26 1    
     4    2    9 ar   
     5    2   27 1    
     6    3    6 ar   
     7    3   10 ar   
     8    3   28 1    
     9    4    6 ar   
    10    4   12 ar   
    11    4   29 1    
    12    5    7 ar   
    13    5    8 ar   
    14    5   30 1    
    15    6   13 1    
    16    7    9 ar   
    17    7   14 1    
    18    8   17 1    
    19    9   21 1    
    20   10   11 ar   
    21   10   23 1    
    22   11   12 ar   
    23   11   24 1    
    24   12   25 1    
    25   13   21 am   BACKBONE|DICT|INTERRES
    26   13   22 2    
    27   14   15 1    
    28   14   31 1    
    29   14   32 1    
    30   15   16 1    
    31   15   33 1    
    32   15   34 1    
    33   16   21 1    
    34   16   35 1    
    35   16   36 1    
    36   17   37 1    
    37   17   38 1    
    38   17   39 1    
    39   18   20 1    
    40   18   40 1    
    41   18   41 1    
    42   18   42 1    
    43   19   23 1    
    44   19   43 1    
    45   19   44 1    
    46   19   45 1    
    47   20   24 1    
    48   20   46 1    
    49   20   47 1    
@<TRIPOS>SUBSTRUCTURE
     1 UNK         1 GROUP             0       ****    0 ROOT    
@<TRIPOS>MOLECULE
ZINC69324493_89
46   48    1
SMALL
USER_CHARGES


@<TRIPOS>ATOM
      1 C1        -18.6085  -16.6378   38.6167 C.ar      1 UNK        -0.1150 
      2 C2        -16.9850  -14.9317   39.2396 C.ar      1 UNK        -0.1150 
      3 C3        -13.7198  -20.9409   35.8418 C.ar      1 UNK         0.5281 
      4 C4        -15.6431  -20.4124   36.3498 C.ar      1 UNK         0.2778 
      5 C5        -17.5357  -16.2137   39.4285 C.ar      1 UNK        -0.1150 
      6 C6        -18.5088  -14.5413   37.3759 C.ar      1 UNK        -0.1150 
      7 C7        -19.1020  -15.8098   37.5809 C.ar      1 UNK         0.0850 
      8 C8        -17.4600  -14.0855   38.2096 C.ar      1 UNK         0.0850 
      9 C9        -17.0149  -17.0872   40.5341 C.2       1 UNK         0.6150 
     10 C10       -16.4169  -20.7647   40.8793 C.3       1 UNK        -0.1200 
     11 C11       -15.5119  -21.0872   39.6791 C.3       1 UNK        -0.1200 
     12 C12       -16.3164  -19.2946   41.3244 C.3       1 UNK        -0.0500 
     13 C13       -16.3800  -18.8251   38.8545 C.3       1 UNK        -0.0500 
     14 C14       -15.2310  -19.8534   38.8008 C.3       1 UNK         0.0625 
     15 C15       -19.0220  -13.6398   36.2634 C.3       1 UNK        -0.0650 
     16 C16       -20.8019  -17.4092   36.9852 C.3       1 UNK         0.1100 
     17 C17       -15.9279  -12.3317   38.8182 C.3       1 UNK         0.1100 
     18 N18       -14.9673  -20.8418   35.2936 N.2       1 UNK        -0.6329 
     19 N19       -13.6251  -20.6094   37.1299 N.2       1 UNK        -0.5282 
     20 N20       -14.8907  -20.2452   37.4412 N.pl3     1 UNK         0.0656 
     21 N21       -16.6332  -18.3542   40.2325 N.am      1 UNK        -0.1400 
     22 O22       -16.9563  -16.6283   41.6740 O.2       1 UNK        -0.5000 
     23 O23       -20.1441  -16.1727   36.7523 O.3       1 UNK        -0.2850 
     24 O24       -16.9553  -12.8237   37.9703 O.3       1 UNK        -0.2850 
     25 H25       -19.0437  -17.6053   38.8128 H         1 UNK         0.1150 
     26 H26       -16.1904  -14.6220   39.9021 H         1 UNK         0.1150 
     27 H27       -12.8598  -21.2756   35.2795 H         1 UNK         0.0525 
     28 H28       -16.7063  -20.2226   36.3248 H         1 UNK         0.1146 
     29 H29       -17.4533  -20.9742   40.6105 H         1 UNK         0.0600 
     30 H30       -16.1847  -21.4312   41.7111 H         1 UNK         0.0600 
     31 H31       -14.5589  -21.4899   40.0256 H         1 UNK         0.0600 
     32 H32       -15.9739  -21.8836   39.0940 H         1 UNK         0.0600 
     33 H33       -16.9940  -19.1403   42.1673 H         1 UNK         0.0600 
     34 H34       -15.3130  -19.0788   41.6952 H         1 UNK         0.0600 
     35 H35       -16.1133  -17.9929   38.2000 H         1 UNK         0.0600 
     36 H36       -17.2996  -19.2599   38.4622 H         1 UNK         0.0600 
     37 H37       -14.3500  -19.3528   39.2087 H         1 UNK         0.0600 
     38 H38       -19.7856  -12.9678   36.6539 H         1 UNK         0.0600 
     39 H39       -18.2185  -13.0368   35.8404 H         1 UNK         0.0600 
     40 H40       -19.4555  -14.2135   35.4448 H         1 UNK         0.0600 
     41 H41       -21.2407  -17.4460   37.9834 H         1 UNK         0.0300 
     42 H42       -20.1230  -18.2529   36.8549 H         1 UNK         0.0300 
     43 H43       -21.6124  -17.5249   36.2658 H         1 UNK         0.0300 
     44 H44       -15.6571  -11.3234   38.5056 H         1 UNK         0.0300 
     45 H45       -15.0301  -12.9479   38.7559 H         1 UNK         0.0300 
     46 H46       -16.2590  -12.2764   39.8562 H         1 UNK         0.0300 
@<TRIPOS>BOND
     1    1    5 ar   
     2    1    7 ar   
     3    1   25 1    
     4    2    5 ar   
     5    2    8 ar   
     6    2   26 1    
     7    3   18 ar   
     8    3   19 ar   
     9    3   27 1    
    10    4   18 ar   
    11    4   20 ar   
    12    4   28 1    
    13    5    9 1    
    14    6    7 ar   
    15    6    8 ar   
    16    6   15 1    
    17    7   23 1    
    18    8   24 1    
    19    9   21 am   BACKBONE|DICT|INTERRES
    20    9   22 2    
    21   10   11 1    
    22   10   12 1    
    23   10   29 1    
    24   10   30 1    
    25   11   14 1    
    26   11   31 1    
    27   11   32 1    
    28   12   21 1    
    29   12   33 1    
    30   12   34 1    
    31   13   14 1    
    32   13   21 1    
    33   13   35 1    
    34   13   36 1    
    35   14   20 1    
    36   14   37 1    
    37   15   38 1    
    38   15   39 1    
    39   15   40 1    
    40   16   23 1    
    41   16   41 1    
    42   16   42 1    
    43   16   43 1    
    44   17   24 1    
    45   17   44 1    
    46   17   45 1    
    47   17   46 1    
    48   19   20 ar   
@<TRIPOS>SUBSTRUCTURE
     1 UNK         1 GROUP             0       ****    0 ROOT    
@<TRIPOS>MOLECULE
ZINC69454118_57
46   48    1
SMALL
USER_CHARGES


@<TRIPOS>ATOM
      1 C1         -8.2493  -14.4352   35.3723 C.ar      1 UNK        -0.1150 
      2 C2         -8.5201  -15.0521   36.6088 C.ar      1 UNK        -0.1150 
      3 C3         -7.6859  -13.1451   35.3396 C.ar      1 UNK        -0.1150 
      4 C4         -8.2210  -14.3827   37.8119 C.ar      1 UNK        -0.1150 
      5 C5         -7.3875  -12.4759   36.5427 C.ar      1 UNK        -0.1150 
      6 C6        -10.8239   -5.2838   37.1806 C.ar      1 UNK        -0.1150 
      7 C7        -10.5076   -6.4064   36.3942 C.ar      1 UNK        -0.1150 
      8 C8         -9.9289   -6.3973   39.1464 C.ar      1 UNK        -0.1150 
      9 C9         -7.6373  -13.0962   37.7870 C.ar      1 UNK         0.2000 
     10 C10        -9.6047   -7.5296   38.3609 C.ar      1 UNK         0.0850 
     11 C11       -10.5415   -5.2637   38.5585 C.ar      1 UNK         0.0850 
     12 C12        -9.8952   -7.5409   36.9786 C.ar      1 UNK         0.0850 
     13 C13        -6.7622  -12.2981   41.3226 C.ar      1 UNK        -0.1150 
     14 C14        -6.7540  -12.9542   40.1460 C.ar      1 UNK         0.1225 
     15 C15        -7.3907  -10.9720   41.4487 C.ar      1 UNK         0.4700 
     16 C16        -7.9255  -10.4062   40.1638 C.ar      1 UNK         0.4529 
     17 C17        -8.5264   -9.0264   40.0916 C.2       1 UNK         0.3238 
     18 C18        -6.0102  -14.2734   39.9950 C.3       1 UNK        -0.1800 
     19 C19       -10.6108   -4.0699   40.6396 C.3       1 UNK         0.1100 
     20 C20        -9.8449   -8.7260   34.8866 C.3       1 UNK         0.1100 
     21 N21        -7.8792  -11.1145   39.0696 N.2       1 UNK        -0.3551 
     22 N22        -7.3578  -12.3910   38.9932 N.pl3     1 UNK        -0.2441 
     23 N23        -8.9919   -8.7072   38.8654 N.am      1 UNK        -0.3850 
     24 O24        -7.4470  -10.4056   42.5420 O.2       1 UNK        -0.4700 
     25 O25        -8.5815   -8.2625   41.0551 O.2       1 UNK        -0.5000 
     26 O26       -10.8889   -4.1217   39.2471 O.3       1 UNK        -0.2850 
     27 O27        -9.5541   -8.6805   36.2754 O.3       1 UNK        -0.2850 
     28 H28        -8.4806  -14.9481   34.4494 H         1 UNK         0.1150 
     29 H29        -8.9641  -16.0366   36.6359 H         1 UNK         0.1150 
     30 H30        -7.4844  -12.6662   34.3926 H         1 UNK         0.1150 
     31 H31        -8.4539  -14.8566   38.7534 H         1 UNK         0.1150 
     32 H32        -6.9604  -11.4842   36.5106 H         1 UNK         0.1150 
     33 H33       -11.2908   -4.4236   36.7236 H         1 UNK         0.1150 
     34 H34       -10.7466   -6.3686   35.3432 H         1 UNK         0.1150 
     35 H35        -9.7100   -6.3988   40.2002 H         1 UNK         0.1150 
     36 H36        -6.2818  -12.7081   42.1974 H         1 UNK         0.1150 
     37 H37        -6.6278  -15.1015   40.3429 H         1 UNK         0.0600 
     38 H38        -5.0995  -14.2615   40.5949 H         1 UNK         0.0600 
     39 H39        -5.7043  -14.4712   38.9676 H         1 UNK         0.0600 
     40 H40       -10.9412   -3.1107   41.0376 H         1 UNK         0.0300 
     41 H41        -9.5415   -4.1579   40.8370 H         1 UNK         0.0300 
     42 H42       -11.1435   -4.8521   41.1820 H         1 UNK         0.0300 
     43 H43        -9.5222   -9.6861   34.4839 H         1 UNK         0.0300 
     44 H44        -9.3127   -7.9445   34.3427 H         1 UNK         0.0300 
     45 H45       -10.9158   -8.6332   34.7000 H         1 UNK         0.0300 
     46 H46        -8.8668   -9.4343   38.1714 H         1 UNK         0.3000 
@<TRIPOS>BOND
     1    1    2 ar   
     2    1    3 ar   
     3    1   28 1    
     4    2    4 ar   
     5    2   29 1    
     6    3    5 ar   
     7    3   30 1    
     8    4    9 ar   
     9    4   31 1    
    10    5    9 ar   
    11    5   32 1    
    12    6    7 ar   
    13    6   11 ar   
    14    6   33 1    
    15    7   12 ar   
    16    7   34 1    
    17    8   10 ar   
    18    8   11 ar   
    19    8   35 1    
    20    9   22 1    
    21   10   12 ar   
    22   10   23 1    
    23   11   26 1    
    24   12   27 1    
    25   13   14 ar   
    26   13   15 ar   
    27   13   36 1    
    28   14   18 1    
    29   14   22 ar   
    30   15   16 ar   
    31   15   24 2    
    32   16   17 1    
    33   16   21 ar   
    34   17   23 am   BACKBONE|DICT|INTERRES
    35   17   25 2    
    36   18   37 1    
    37   18   38 1    
    38   18   39 1    
    39   19   26 1    
    40   19   40 1    
    41   19   41 1    
    42   19   42 1    
    43   20   27 1    
    44   20   43 1    
    45   20   44 1    
    46   20   45 1    
    47   21   22 ar   
    48   23   46 1    
@<TRIPOS>SUBSTRUCTURE
     1 UNK         1 GROUP             0       ****    0 ROOT    
@<TRIPOS>MOLECULE
ZINC69662702_98
44   46    1
SMALL
USER_CHARGES


@<TRIPOS>ATOM
      1 C1         -8.0559   -5.7685   38.6114 C.ar      1 UNK        -0.1150 
      2 C2         -6.2069   -4.3137   39.2202 C.ar      1 UNK        -0.1150 
      3 C3         -3.4664   -9.5015   35.5264 C.ar      1 UNK         0.1850 
      4 C4         -3.4736   -8.6398   36.5995 C.ar      1 UNK        -0.2860 
      5 C5         -4.6922  -10.3813   37.0478 C.ar      1 UNK         0.2750 
      6 C6         -6.9393   -5.4950   39.4291 C.ar      1 UNK        -0.1150 
      7 C7         -8.4196   -4.9031   37.5473 C.ar      1 UNK         0.0850 
      8 C8         -7.6342   -3.7351   37.3119 C.ar      1 UNK         0.0850 
      9 C9         -6.5483   -3.4460   38.1703 C.ar      1 UNK         0.1800 
     10 C10        -6.5711   -6.4014   40.5676 C.2       1 UNK         0.6150 
     11 C11        -4.6102   -9.0751   41.4001 C.3       1 UNK        -0.1200 
     12 C12        -4.1764   -9.6248   40.0294 C.3       1 UNK        -0.1200 
     13 C13        -6.0993   -8.6823   41.3894 C.3       1 UNK        -0.0500 
     14 C14        -6.0788   -8.2985   38.9851 C.3       1 UNK        -0.0500 
     15 C15        -4.5843   -8.6708   38.8858 C.3       1 UNK         0.0625 
     16 C16       -10.3282   -6.2877   37.0090 C.3       1 UNK         0.1100 
     17 C17        -8.4516   -3.2507   35.0894 C.3       1 UNK         0.1100 
     18 N18        -4.2515  -10.6127   35.8193 N.2       1 UNK        -0.5630 
     19 N19        -4.2682   -9.2240   37.5792 N.pl3     1 UNK        -0.0735 
     20 N20        -6.3422   -7.7143   40.3100 N.am      1 UNK        -0.1400 
     21 O21        -6.4912   -5.9199   41.6959 O.2       1 UNK        -0.5000 
     22 O22        -9.5225   -5.1462   36.7526 O.3       1 UNK        -0.2850 
     23 O23        -7.8682   -2.8149   36.3081 O.3       1 UNK        -0.2850 
     24 Cl24       -5.5985   -2.0226   37.9317 Cl        1 UNK        -0.1800 
     25 H25        -8.6271   -6.6578   38.8297 H         1 UNK         0.1150 
     26 H26        -5.3745   -4.0704   39.8655 H         1 UNK         0.1150 
     27 H27        -2.9646   -9.4068   34.5736 H         1 UNK         0.0750 
     28 H28        -2.9875   -7.6845   36.7343 H         1 UNK         0.1870 
     29 H29        -5.3432  -11.0680   37.5695 H         1 UNK         0.0780 
     30 H30        -4.4225   -9.8169   42.1776 H         1 UNK         0.0600 
     31 H31        -4.0056   -8.2034   41.6560 H         1 UNK         0.0600 
     32 H32        -3.0980   -9.7903   40.0165 H         1 UNK         0.0600 
     33 H33        -4.6383  -10.6020   39.8836 H         1 UNK         0.0600 
     34 H34        -6.7218   -9.5638   41.2299 H         1 UNK         0.0600 
     35 H35        -6.3880   -8.2936   42.3681 H         1 UNK         0.0600 
     36 H36        -6.3239   -7.6368   38.1562 H         1 UNK         0.0600 
     37 H37        -6.7062   -9.1812   38.8550 H         1 UNK         0.0600 
     38 H38        -4.0024   -7.7534   38.9941 H         1 UNK         0.0600 
     39 H39       -11.1503   -6.3129   36.2937 H         1 UNK         0.0300 
     40 H40       -10.7644   -6.2530   38.0082 H         1 UNK         0.0300 
     41 H41        -9.7616   -7.2120   36.8890 H         1 UNK         0.0300 
     42 H42        -8.1916   -2.5452   34.3002 H         1 UNK         0.0300 
     43 H43        -9.5396   -3.2716   35.1575 H         1 UNK         0.0300 
     44 H44        -8.0842   -4.2316   34.7837 H         1 UNK         0.0300 
@<TRIPOS>BOND
     1    1    6 ar   
     2    1    7 ar   
     3    1   25 1    
     4    2    6 ar   
     5    2    9 ar   
     6    2   26 1    
     7    3    4 ar   
     8    3   18 ar   
     9    3   27 1    
    10    4   19 ar   
    11    4   28 1    
    12    5   18 ar   
    13    5   19 ar   
    14    5   29 1    
    15    6   10 1    
    16    7    8 ar   
    17    7   22 1    
    18    8    9 ar   
    19    8   23 1    
    20    9   24 1    
    21   10   20 am   BACKBONE|DICT|INTERRES
    22   10   21 2    
    23   11   12 1    
    24   11   13 1    
    25   11   30 1    
    26   11   31 1    
    27   12   15 1    
    28   12   32 1    
    29   12   33 1    
    30   13   20 1    
    31   13   34 1    
    32   13   35 1    
    33   14   15 1    
    34   14   20 1    
    35   14   36 1    
    36   14   37 1    
    37   15   19 1    
    38   15   38 1    
    39   16   22 1    
    40   16   39 1    
    41   16   40 1    
    42   16   41 1    
    43   17   23 1    
    44   17   42 1    
    45   17   43 1    
    46   17   44 1    
@<TRIPOS>SUBSTRUCTURE
     1 UNK         1 GROUP             0       ****    0 ROOT    
@<TRIPOS>MOLECULE
ZINC69662702_98
44   46    1
SMALL
USER_CHARGES


@<TRIPOS>ATOM
      1 C1         -8.0559   -5.7685   38.6114 C.ar      1 UNK        -0.1150 
      2 C2         -6.2069   -4.3137   39.2202 C.ar      1 UNK        -0.1150 
      3 C3         -3.4664   -9.5015   35.5264 C.ar      1 UNK         0.1850 
      4 C4         -3.4736   -8.6398   36.5995 C.ar      1 UNK        -0.2860 
      5 C5         -4.6922  -10.3813   37.0478 C.ar      1 UNK         0.2750 
      6 C6         -6.9393   -5.4950   39.4291 C.ar      1 UNK        -0.1150 
      7 C7         -8.4196   -4.9031   37.5473 C.ar      1 UNK         0.0850 
      8 C8         -7.6342   -3.7351   37.3119 C.ar      1 UNK         0.0850 
      9 C9         -6.5483   -3.4460   38.1703 C.ar      1 UNK         0.1800 
     10 C10        -6.5711   -6.4014   40.5676 C.2       1 UNK         0.6150 
     11 C11        -4.6102   -9.0751   41.4001 C.3       1 UNK        -0.1200 
     12 C12        -4.1764   -9.6248   40.0294 C.3       1 UNK        -0.1200 
     13 C13        -6.0993   -8.6823   41.3894 C.3       1 UNK        -0.0500 
     14 C14        -6.0788   -8.2985   38.9851 C.3       1 UNK        -0.0500 
     15 C15        -4.5843   -8.6708   38.8858 C.3       1 UNK         0.0625 
     16 C16       -10.3282   -6.2877   37.0090 C.3       1 UNK         0.1100 
     17 C17        -8.4516   -3.2507   35.0894 C.3       1 UNK         0.1100 
     18 N18        -4.2515  -10.6127   35.8193 N.2       1 UNK        -0.5630 
     19 N19        -4.2682   -9.2240   37.5792 N.pl3     1 UNK        -0.0735 
     20 N20        -6.3422   -7.7143   40.3100 N.am      1 UNK        -0.1400 
     21 O21        -6.4912   -5.9199   41.6959 O.2       1 UNK        -0.5000 
     22 O22        -9.5225   -5.1462   36.7526 O.3       1 UNK        -0.2850 
     23 O23        -7.8682   -2.8149   36.3081 O.3       1 UNK        -0.2850 
     24 Cl24       -5.5985   -2.0226   37.9317 Cl        1 UNK        -0.1800 
     25 H25        -8.6271   -6.6578   38.8297 H         1 UNK         0.1150 
     26 H26        -5.3745   -4.0704   39.8655 H         1 UNK         0.1150 
     27 H27        -2.9646   -9.4068   34.5736 H         1 UNK         0.0750 
     28 H28        -2.9875   -7.6845   36.7343 H         1 UNK         0.1870 
     29 H29        -5.3432  -11.0680   37.5695 H         1 UNK         0.0780 
     30 H30        -4.4225   -9.8169   42.1776 H         1 UNK         0.0600 
     31 H31        -4.0056   -8.2034   41.6560 H         1 UNK         0.0600 
     32 H32        -3.0980   -9.7903   40.0165 H         1 UNK         0.0600 
     33 H33        -4.6383  -10.6020   39.8836 H         1 UNK         0.0600 
     34 H34        -6.7218   -9.5638   41.2299 H         1 UNK         0.0600 
     35 H35        -6.3880   -8.2936   42.3681 H         1 UNK         0.0600 
     36 H36        -6.3239   -7.6368   38.1562 H         1 UNK         0.0600 
     37 H37        -6.7062   -9.1812   38.8550 H         1 UNK         0.0600 
     38 H38        -4.0024   -7.7534   38.9941 H         1 UNK         0.0600 
     39 H39       -11.1503   -6.3129   36.2937 H         1 UNK         0.0300 
     40 H40       -10.7644   -6.2530   38.0082 H         1 UNK         0.0300 
     41 H41        -9.7616   -7.2120   36.8890 H         1 UNK         0.0300 
     42 H42        -8.1916   -2.5452   34.3002 H         1 UNK         0.0300 
     43 H43        -9.5396   -3.2716   35.1575 H         1 UNK         0.0300 
     44 H44        -8.0842   -4.2316   34.7837 H         1 UNK         0.0300 
@<TRIPOS>BOND
     1    1    6 ar   
     2    1    7 ar   
     3    1   25 1    
     4    2    6 ar   
     5    2    9 ar   
     6    2   26 1    
     7    3    4 ar   
     8    3   18 ar   
     9    3   27 1    
    10    4   19 ar   
    11    4   28 1    
    12    5   18 ar   
    13    5   19 ar   
    14    5   29 1    
    15    6   10 1    
    16    7    8 ar   
    17    7   22 1    
    18    8    9 ar   
    19    8   23 1    
    20    9   24 1    
    21   10   20 am   BACKBONE|DICT|INTERRES
    22   10   21 2    
    23   11   12 1    
    24   11   13 1    
    25   11   30 1    
    26   11   31 1    
    27   12   15 1    
    28   12   32 1    
    29   12   33 1    
    30   13   20 1    
    31   13   34 1    
    32   13   35 1    
    33   14   15 1    
    34   14   20 1    
    35   14   36 1    
    36   14   37 1    
    37   15   19 1    
    38   15   38 1    
    39   16   22 1    
    40   16   39 1    
    41   16   40 1    
    42   16   41 1    
    43   17   23 1    
    44   17   42 1    
    45   17   43 1    
    46   17   44 1    
@<TRIPOS>SUBSTRUCTURE
     1 UNK         1 GROUP             0       ****    0 ROOT    
@<TRIPOS>MOLECULE
ZINC71260222_14
42   45    1
SMALL
USER_CHARGES


@<TRIPOS>ATOM
      1 C1         -4.6378  -10.2801   35.3113 C.2       1 UNK        -0.1540 
      2 C2         -4.9111   -9.2506   36.2551 C.2       1 UNK        -0.1540 
      3 C3         -7.7177   -5.9666   38.4314 C.ar      1 UNK        -0.1150 
      4 C4         -6.8869   -4.0477   39.6782 C.ar      1 UNK        -0.1150 
      5 C5         -4.4683  -11.4230   36.0400 C.2       1 UNK        -0.0190 
      6 C6         -6.9864   -5.4446   39.5184 C.ar      1 UNK         0.0000 
      7 C7         -8.3333   -5.1083   37.4892 C.ar      1 UNK         0.0850 
      8 C8         -7.4990   -3.1681   38.7541 C.ar      1 UNK         0.0850 
      9 C9         -8.2067   -3.7072   37.6564 C.ar      1 UNK         0.0850 
     10 C10        -4.8845   -9.8378   37.4921 C.2       1 UNK         0.1230 
     11 C11        -6.3317   -6.3294   40.4843 C.ar      1 UNK         0.4100 
     12 C12        -5.2620   -7.8965   41.4037 C.ar      1 UNK         0.5625 
     13 C13        -5.1013   -9.2978   38.8298 C.2       1 UNK         0.3536 
     14 C14        -4.8990  -10.1840   40.0618 C.3       1 UNK         0.0836 
     15 C15        -9.2129   -6.9671   36.2348 C.3       1 UNK         0.1100 
     16 C16        -6.7937   -1.2231   39.9801 C.3       1 UNK         0.1100 
     17 C17        -8.1945   -2.8104   35.4894 C.3       1 UNK         0.1100 
     18 N18        -6.2936   -6.0496   41.7946 N.2       1 UNK        -0.3633 
     19 N19        -5.5940   -7.0764   42.3962 N.2       1 UNK        -0.3633 
     20 N20        -5.4898   -8.0872   38.9455 N.2       1 UNK        -0.3897 
     21 N21        -5.6940   -7.4879   40.1961 N.pl3     1 UNK        -0.0934 
     22 O22        -4.6186  -11.1711   37.3700 O.3       1 UNK        -0.1900 
     23 O23        -9.0690   -5.5662   36.4146 O.3       1 UNK        -0.2850 
     24 O24        -7.4352   -1.7928   38.8490 O.3       1 UNK        -0.2850 
     25 O25        -8.7954   -2.8354   36.7744 O.3       1 UNK        -0.2850 
     26 S26        -4.3282   -9.3693   41.5859 S.3       1 UNK        -0.3200 
     27 H27        -4.5732  -10.1954   34.2358 H         1 UNK         0.1260 
     28 H28        -5.1019   -8.2046   36.0607 H         1 UNK         0.1260 
     29 H29        -7.8028   -7.0374   38.3436 H         1 UNK         0.1150 
     30 H30        -6.3292   -3.6735   40.5233 H         1 UNK         0.1150 
     31 H31        -4.2472  -12.4502   35.7846 H         1 UNK         0.1420 
     32 H32        -5.8482  -10.6735   40.2792 H         1 UNK         0.0600 
     33 H33        -4.1882  -10.9773   39.8316 H         1 UNK         0.0600 
     34 H34        -9.8149   -7.1540   35.3456 H         1 UNK         0.0300 
     35 H35        -9.7248   -7.4275   37.0807 H         1 UNK         0.0300 
     36 H36        -8.2474   -7.4524   36.0864 H         1 UNK         0.0300 
     37 H37        -6.8671   -0.1370   39.9254 H         1 UNK         0.0300 
     38 H38        -5.7342   -1.4804   40.0089 H         1 UNK         0.0300 
     39 H39        -7.2690   -1.5385   40.9100 H         1 UNK         0.0300 
     40 H40        -8.5448   -1.9329   34.9463 H         1 UNK         0.0300 
     41 H41        -8.4562   -3.6881   34.8993 H         1 UNK         0.0300 
     42 H42        -7.1075   -2.7455   35.5587 H         1 UNK         0.0300 
@<TRIPOS>BOND
     1    1    2 1    
     2    1    5 2    
     3    1   27 1    
     4    2   10 2    
     5    2   28 1    
     6    3    6 ar   
     7    3    7 ar   
     8    3   29 1    
     9    4    6 ar   
    10    4    8 ar   
    11    4   30 1    
    12    5   22 1    
    13    5   31 1    
    14    6   11 1    
    15    7    9 ar   
    16    7   23 1    
    17    8    9 ar   
    18    8   24 1    
    19    9   25 1    
    20   10   13 1    
    21   10   22 1    
    22   11   18 ar   
    23   11   21 ar   
    24   12   19 ar   
    25   12   21 ar   
    26   12   26 1    
    27   13   14 1    
    28   13   20 2    
    29   14   26 1    
    30   14   32 1    
    31   14   33 1    
    32   15   23 1    
    33   15   34 1    
    34   15   35 1    
    35   15   36 1    
    36   16   24 1    
    37   16   37 1    
    38   16   38 1    
    39   16   39 1    
    40   17   25 1    
    41   17   40 1    
    42   17   41 1    
    43   17   42 1    
    44   18   19 ar   
    45   20   21 1    
@<TRIPOS>SUBSTRUCTURE
     1 UNK         1 GROUP             0       ****    0 ROOT    
@<TRIPOS>MOLECULE
ZINC71260247_23
42   45    1
SMALL
USER_CHARGES


@<TRIPOS>ATOM
      1 C1         -4.8652   -9.2047   36.2574 C.2       1 UNK        -0.1540 
      2 C2         -4.5706  -10.2162   35.2991 C.2       1 UNK        -0.1540 
      3 C3         -7.7338   -5.9703   38.4429 C.ar      1 UNK        -0.1150 
      4 C4         -6.8809   -4.0502   39.6741 C.ar      1 UNK        -0.1150 
      5 C5         -6.9937   -5.4469   39.5232 C.ar      1 UNK         0.0000 
      6 C6         -8.3473   -5.1123   37.4990 C.ar      1 UNK         0.0850 
      7 C7         -7.4888   -3.1713   38.7465 C.ar      1 UNK         0.0850 
      8 C8         -8.2074   -3.7116   37.6566 C.ar      1 UNK         0.0850 
      9 C9         -4.8438   -9.8083   37.4905 C.2       1 UNK         0.1230 
     10 C10        -4.4003  -11.3506   36.0343 C.2       1 UNK         0.3230 
     11 C11        -6.3420   -6.3314   40.4905 C.ar      1 UNK         0.4100 
     12 C12        -5.2691   -7.8961   41.4096 C.ar      1 UNK         0.5625 
     13 C13        -5.0803   -9.2828   38.8300 C.2       1 UNK         0.3536 
     14 C14        -4.8844  -10.1748   40.0594 C.3       1 UNK         0.0836 
     15 C15        -9.2761   -6.9684   36.2763 C.3       1 UNK         0.1100 
     16 C16        -6.7476   -1.2241   39.9480 C.3       1 UNK         0.1100 
     17 C17        -8.1824   -2.8141   35.4920 C.3       1 UNK         0.1100 
     18 N18        -6.3131   -6.0565   41.8018 N.2       1 UNK        -0.3633 
     19 N19        -5.6118   -7.0820   42.4034 N.2       1 UNK        -0.3633 
     20 N20        -5.4801   -8.0765   38.9483 N.2       1 UNK        -0.3897 
     21 N21        -5.6965   -7.4849   40.2010 N.pl3     1 UNK        -0.0934 
     22 O22        -4.5613  -11.1386   37.3648 O.3       1 UNK        -0.1900 
     23 O23        -9.0920   -5.5691   36.4301 O.3       1 UNK        -0.2850 
     24 O24        -7.4114   -1.7962   38.8309 O.3       1 UNK        -0.2850 
     25 O25        -8.7945   -2.8422   36.7714 O.3       1 UNK        -0.2850 
     26 S26        -4.3268   -9.3637   41.5898 S.3       1 UNK        -0.3200 
     27 Br27       -3.9891  -13.0611   35.3146 Br        1 UNK        -0.2000 
     28 H28        -5.0672   -8.1584   36.0755 H         1 UNK         0.1260 
     29 H29        -4.4943  -10.1304   34.2249 H         1 UNK         0.1260 
     30 H30        -7.8265   -7.0409   38.3620 H         1 UNK         0.1150 
     31 H31        -6.3161   -3.6760   40.5146 H         1 UNK         0.1150 
     32 H32        -5.8338  -10.6675   40.2692 H         1 UNK         0.0600 
     33 H33        -4.1698  -10.9655   39.8324 H         1 UNK         0.0600 
     34 H34        -9.8932   -7.1541   35.3972 H         1 UNK         0.0300 
     35 H35        -9.7906   -7.4001   37.1359 H         1 UNK         0.0300 
     36 H36        -8.3253   -7.4818   36.1255 H         1 UNK         0.0300 
     37 H37        -6.8077   -0.1377   39.8832 H         1 UNK         0.0300 
     38 H38        -5.6912   -1.4948   39.9654 H         1 UNK         0.0300 
     39 H39        -7.2148   -1.5238   40.8872 H         1 UNK         0.0300 
     40 H40        -8.5499   -1.9517   34.9365 H         1 UNK         0.0300 
     41 H41        -8.4148   -3.7047   34.9089 H         1 UNK         0.0300 
     42 H42        -7.0982   -2.7205   35.5715 H         1 UNK         0.0300 
@<TRIPOS>BOND
     1    1    2 1    
     2    1    9 2    
     3    1   28 1    
     4    2   10 2    
     5    2   29 1    
     6    3    5 ar   
     7    3    6 ar   
     8    3   30 1    
     9    4    5 ar   
    10    4    7 ar   
    11    4   31 1    
    12    5   11 1    
    13    6    8 ar   
    14    6   23 1    
    15    7    8 ar   
    16    7   24 1    
    17    8   25 1    
    18    9   13 1    
    19    9   22 1    
    20   10   22 1    
    21   10   27 1    
    22   11   18 ar   
    23   11   21 ar   
    24   12   19 ar   
    25   12   21 ar   
    26   12   26 1    
    27   13   14 1    
    28   13   20 2    
    29   14   26 1    
    30   14   32 1    
    31   14   33 1    
    32   15   23 1    
    33   15   34 1    
    34   15   35 1    
    35   15   36 1    
    36   16   24 1    
    37   16   37 1    
    38   16   38 1    
    39   16   39 1    
    40   17   25 1    
    41   17   40 1    
    42   17   41 1    
    43   17   42 1    
    44   18   19 ar   
    45   20   21 1    
@<TRIPOS>SUBSTRUCTURE
     1 UNK         1 GROUP             0       ****    0 ROOT    
@<TRIPOS>MOLECULE
ZINC71260273_15
51   55    1
SMALL
USER_CHARGES


@<TRIPOS>ATOM
      1 C1         -4.3707   -8.7562   36.5560 C.ar      1 UNK        -0.1150 
      2 C2         -4.0765   -9.2307   35.2633 C.ar      1 UNK        -0.1150 
      3 C3         -6.9812   -3.9688   39.8419 C.ar      1 UNK        -0.1150 
      4 C4         -7.6265   -5.8496   38.4461 C.ar      1 UNK        -0.1150 
      5 C5         -4.7456  -11.0446   37.3108 C.ar      1 UNK        -0.1150 
      6 C6         -7.0217   -5.3581   39.6200 C.ar      1 UNK         0.0000 
      7 C7         -4.6965   -9.6603   37.5953 C.ar      1 UNK         0.0044 
      8 C8         -4.1048  -10.6102   34.9903 C.ar      1 UNK         0.0850 
      9 C9         -4.4640  -11.5214   36.0167 C.ar      1 UNK         0.0850 
     10 C10        -7.5162   -3.0684   38.8915 C.ar      1 UNK         0.0850 
     11 C11        -8.1635   -4.9731   37.4718 C.ar      1 UNK         0.0850 
     12 C12        -8.0857   -3.5685   37.6968 C.ar      1 UNK         0.0850 
     13 C13        -6.4329   -6.2649   40.6090 C.ar      1 UNK         0.4100 
     14 C14        -5.3981   -7.8361   41.5607 C.ar      1 UNK         0.5625 
     15 C15        -5.0189   -9.1576   38.9592 C.2       1 UNK         0.3492 
     16 C16        -4.8654  -10.0693   40.1829 C.3       1 UNK         0.0836 
     17 C17        -3.5082  -12.4375   33.6331 C.3       1 UNK         0.1400 
     18 C18        -4.5780  -13.2301   34.4002 C.3       1 UNK         0.1400 
     19 C19        -6.9961   -1.1623   40.2679 C.3       1 UNK         0.1100 
     20 C20        -8.8349   -6.8367   36.0870 C.3       1 UNK         0.1100 
     21 C21        -8.4283   -2.8519   35.4274 C.3       1 UNK         0.1100 
     22 N22        -6.5021   -6.0265   41.9263 N.2       1 UNK        -0.3633 
     23 N23        -5.8248   -7.0556   42.5490 N.2       1 UNK        -0.3633 
     24 N24        -5.4439   -7.9605   39.0902 N.2       1 UNK        -0.3897 
     25 N25        -5.7514   -7.4026   40.3373 N.pl3     1 UNK        -0.0934 
     26 O26        -3.7891  -11.0451   33.7241 O.3       1 UNK        -0.2850 
     27 O27        -4.5429  -12.8742   35.7788 O.3       1 UNK        -0.2850 
     28 O28        -7.4990   -1.6974   39.0527 O.3       1 UNK        -0.2850 
     29 O29        -8.7804   -5.4375   36.3260 O.3       1 UNK        -0.2850 
     30 O30        -8.5701   -2.6185   36.8205 O.3       1 UNK        -0.2850 
     31 S31        -4.4354   -9.2857   41.7673 S.3       1 UNK        -0.3200 
     32 H32        -4.3359   -7.6915   36.7421 H         1 UNK         0.1150 
     33 H33        -3.8167   -8.5354   34.4783 H         1 UNK         0.1150 
     34 H34        -6.5241   -3.6156   40.7539 H         1 UNK         0.1150 
     35 H35        -7.6756   -6.9180   38.3167 H         1 UNK         0.1150 
     36 H36        -5.0179  -11.7634   38.0689 H         1 UNK         0.1150 
     37 H37        -5.8043  -10.6056   40.3212 H         1 UNK         0.0600 
     38 H38        -4.1007  -10.8197   39.9847 H         1 UNK         0.0600 
     39 H39        -2.5136  -12.6411   34.0327 H         1 UNK         0.0300 
     40 H40        -3.4999  -12.7278   32.5825 H         1 UNK         0.0300 
     41 H41        -5.5710  -13.0340   33.9932 H         1 UNK         0.0300 
     42 H42        -4.3969  -14.3011   34.3076 H         1 UNK         0.0300 
     43 H43        -7.0935   -0.0769   40.2482 H         1 UNK         0.0300 
     44 H44        -5.9387   -1.3949   40.3997 H         1 UNK         0.0300 
     45 H45        -7.5581   -1.5276   41.1286 H         1 UNK         0.0300 
     46 H46        -9.3321   -7.0174   35.1341 H         1 UNK         0.0300 
     47 H47        -9.4092   -7.3514   36.8585 H         1 UNK         0.0300 
     48 H48        -7.8362   -7.2720   36.0240 H         1 UNK         0.0300 
     49 H49        -8.3825   -1.8940   34.9100 H         1 UNK         0.0300 
     50 H50        -9.2866   -3.3941   35.0307 H         1 UNK         0.0300 
     51 H51        -7.5133   -3.3966   35.1893 H         1 UNK         0.0300 
@<TRIPOS>BOND
     1    1    2 ar   
     2    1    7 ar   
     3    1   32 1    
     4    2    8 ar   
     5    2   33 1    
     6    3    6 ar   
     7    3   10 ar   
     8    3   34 1    
     9    4    6 ar   
    10    4   11 ar   
    11    4   35 1    
    12    5    7 ar   
    13    5    9 ar   
    14    5   36 1    
    15    6   13 1    
    16    7   15 1    
    17    8    9 ar   
    18    8   26 1    
    19    9   27 1    
    20   10   12 ar   
    21   10   28 1    
    22   11   12 ar   
    23   11   29 1    
    24   12   30 1    
    25   13   22 ar   
    26   13   25 ar   
    27   14   23 ar   
    28   14   25 ar   
    29   14   31 1    
    30   15   16 1    
    31   15   24 2    
    32   16   31 1    
    33   16   37 1    
    34   16   38 1    
    35   17   18 1    
    36   17   26 1    
    37   17   39 1    
    38   17   40 1    
    39   18   27 1    
    40   18   41 1    
    41   18   42 1    
    42   19   28 1    
    43   19   43 1    
    44   19   44 1    
    45   19   45 1    
    46   20   29 1    
    47   20   46 1    
    48   20   47 1    
    49   20   48 1    
    50   21   30 1    
    51   21   49 1    
    52   21   50 1    
    53   21   51 1    
    54   22   23 ar   
    55   24   25 1    
@<TRIPOS>SUBSTRUCTURE
     1 UNK         1 GROUP             0       ****    0 ROOT    
@<TRIPOS>MOLECULE
ZINC71260283_205
49   52    1
SMALL
USER_CHARGES


@<TRIPOS>ATOM
      1 C1         -4.5126   -9.5005   35.0601 C.ar      1 UNK        -0.1150 
      2 C2         -4.6606   -8.9429   36.3435 C.ar      1 UNK        -0.1150 
      3 C3         -4.5828  -10.8950   34.8813 C.ar      1 UNK        -0.1150 
      4 C4         -7.0893   -4.0299   39.6164 C.ar      1 UNK        -0.1150 
      5 C5         -7.8738   -6.0415   38.4882 C.ar      1 UNK        -0.1150 
      6 C6         -4.9532  -11.1782   37.2706 C.ar      1 UNK        -0.1150 
      7 C7         -7.1128   -5.4360   39.5105 C.ar      1 UNK         0.0000 
      8 C8         -4.8754   -9.7798   37.4627 C.ar      1 UNK         0.0044 
      9 C9         -4.8068  -11.7474   35.9902 C.ar      1 UNK         0.0850 
     10 C10        -7.8111   -3.2224   38.7053 C.ar      1 UNK         0.0850 
     11 C11        -8.5962   -5.2550   37.5601 C.ar      1 UNK         0.0850 
     12 C12        -8.5562   -3.8477   37.6800 C.ar      1 UNK         0.0850 
     13 C13        -6.3419   -6.2427   40.4593 C.ar      1 UNK         0.4100 
     14 C14        -5.1117   -7.7026   41.3534 C.ar      1 UNK         0.5625 
     15 C15        -5.0447   -9.1939   38.8197 C.2       1 UNK         0.3492 
     16 C16        -4.6965  -10.0118   40.0690 C.3       1 UNK         0.0836 
     17 C17        -4.7574  -13.7259   34.6318 C.3       1 UNK         0.1100 
     18 C18        -7.1275   -1.1934   39.7997 C.3       1 UNK         0.1100 
     19 C19        -9.3724   -7.1923   36.3631 C.3       1 UNK         0.1100 
     20 C20        -8.5143   -2.7045   35.6559 C.3       1 UNK         0.1100 
     21 N21        -6.2310   -5.9094   41.7530 N.2       1 UNK        -0.3633 
     22 N22        -5.4262   -6.8664   42.3383 N.2       1 UNK        -0.3633 
     23 N23        -5.4979   -8.0044   38.9280 N.2       1 UNK        -0.3897 
     24 N24        -5.6533   -7.3705   40.1674 N.pl3     1 UNK        -0.0934 
     25 O25        -4.8962  -13.1194   35.9088 O.3       1 UNK        -0.2850 
     26 O26        -7.8269   -1.8432   38.7490 O.3       1 UNK        -0.2850 
     27 O27        -9.3433   -5.7824   36.5263 O.3       1 UNK        -0.2850 
     28 O28        -9.2668   -3.0778   36.7966 O.3       1 UNK        -0.2850 
     29 S29        -4.0710   -9.1031   41.5155 S.3       1 UNK        -0.3200 
     30 H30        -4.3448   -8.8557   34.2093 H         1 UNK         0.1150 
     31 H31        -4.6042   -7.8693   36.4614 H         1 UNK         0.1150 
     32 H32        -4.4644  -11.2851   33.8817 H         1 UNK         0.1150 
     33 H33        -6.5040   -3.5925   40.4110 H         1 UNK         0.1150 
     34 H34        -7.8936   -7.1178   38.4339 H         1 UNK         0.1150 
     35 H35        -5.1369  -11.8426   38.1019 H         1 UNK         0.1150 
     36 H36        -5.5919  -10.5523   40.3762 H         1 UNK         0.0600 
     37 H37        -3.9477  -10.7622   39.8168 H         1 UNK         0.0600 
     38 H38        -4.8502  -14.8070   34.7342 H         1 UNK         0.0300 
     39 H39        -3.7787  -13.5194   34.1961 H         1 UNK         0.0300 
     40 H40        -5.5369  -13.3921   33.9453 H         1 UNK         0.0300 
     41 H41        -7.2643   -0.1160   39.7097 H         1 UNK         0.0300 
     42 H42        -6.0565   -1.3943   39.7499 H         1 UNK         0.0300 
     43 H43        -7.5074   -1.4927   40.7776 H         1 UNK         0.0300 
     44 H44        -9.9846   -7.4401   35.4961 H         1 UNK         0.0300 
     45 H45        -9.8150   -7.6848   37.2298 H         1 UNK         0.0300 
     46 H46        -8.3738   -7.5951   36.1872 H         1 UNK         0.0300 
     47 H47        -9.1307   -2.0950   34.9955 H         1 UNK         0.0300 
     48 H48        -8.1861   -3.5810   35.0956 H         1 UNK         0.0300 
     49 H49        -7.6376   -2.1178   35.9337 H         1 UNK         0.0300 
@<TRIPOS>BOND
     1    1    2 ar   
     2    1    3 ar   
     3    1   30 1    
     4    2    8 ar   
     5    2   31 1    
     6    3    9 ar   
     7    3   32 1    
     8    4    7 ar   
     9    4   10 ar   
    10    4   33 1    
    11    5    7 ar   
    12    5   11 ar   
    13    5   34 1    
    14    6    8 ar   
    15    6    9 ar   
    16    6   35 1    
    17    7   13 1    
    18    8   15 1    
    19    9   25 1    
    20   10   12 ar   
    21   10   26 1    
    22   11   12 ar   
    23   11   27 1    
    24   12   28 1    
    25   13   21 ar   
    26   13   24 ar   
    27   14   22 ar   
    28   14   24 ar   
    29   14   29 1    
    30   15   16 1    
    31   15   23 2    
    32   16   29 1    
    33   16   36 1    
    34   16   37 1    
    35   17   25 1    
    36   17   38 1    
    37   17   39 1    
    38   17   40 1    
    39   18   26 1    
    40   18   41 1    
    41   18   42 1    
    42   18   43 1    
    43   19   27 1    
    44   19   44 1    
    45   19   45 1    
    46   19   46 1    
    47   20   28 1    
    48   20   47 1    
    49   20   48 1    
    50   20   49 1    
    51   21   22 ar   
    52   23   24 1    
@<TRIPOS>SUBSTRUCTURE
     1 UNK         1 GROUP             0       ****    0 ROOT    
@<TRIPOS>MOLECULE
ZINC71260305_17
45   48    1
SMALL
USER_CHARGES


@<TRIPOS>ATOM
      1 C1         -6.5290   -3.7793   39.5791 C.ar      1 UNK        -0.1150 
      2 C2         -4.2502   -9.0045   36.8429 C.ar      1 UNK        -0.1150 
      3 C3         -6.9745   -2.9508   38.5355 C.ar      1 UNK        -0.1150 
      4 C4         -3.9477   -9.5976   35.6018 C.ar      1 UNK        -0.1150 
      5 C5         -7.4047   -5.7079   38.3927 C.ar      1 UNK        -0.1150 
      6 C6         -4.8918  -11.1779   37.7284 C.ar      1 UNK        -0.1150 
      7 C7         -6.7378   -5.1687   39.5126 C.ar      1 UNK         0.0000 
      8 C8         -4.7194   -9.7898   37.9211 C.ar      1 UNK         0.0044 
      9 C9         -7.6371   -3.4785   37.4092 C.ar      1 UNK         0.0850 
     10 C10        -4.1121  -10.9919   35.4104 C.ar      1 UNK         0.0850 
     11 C11        -7.8522   -4.8881   37.3237 C.ar      1 UNK         0.0850 
     12 C12        -4.5886  -11.7713   36.4882 C.ar      1 UNK         0.1800 
     13 C13        -6.2515   -6.0302   40.5925 C.ar      1 UNK         0.4100 
     14 C14        -5.3850   -7.5997   41.7007 C.ar      1 UNK         0.5625 
     15 C15        -5.0532   -9.1575   39.2270 C.2       1 UNK         0.3492 
     16 C16        -5.0277   -9.9770   40.5233 C.3       1 UNK         0.0836 
     17 C17        -8.9047   -2.8596   35.4291 C.3       1 UNK         0.1100 
     18 C18        -3.3527  -10.8761   33.1306 C.3       1 UNK         0.1100 
     19 C19        -8.6433   -6.8312   36.1191 C.3       1 UNK         0.1100 
     20 N20        -6.3292   -5.6751   41.8825 N.2       1 UNK        -0.3633 
     21 N21        -5.7629   -6.7045   42.6083 N.2       1 UNK        -0.3633 
     22 N22        -5.3775   -7.9227   39.2468 N.2       1 UNK        -0.3897 
     23 N23        -5.6672   -7.2405   40.4355 N.pl3     1 UNK        -0.0934 
     24 O24        -8.0041   -2.5294   36.4745 O.3       1 UNK        -0.2850 
     25 O25        -3.8362  -11.6407   34.2251 O.3       1 UNK        -0.2850 
     26 O26        -8.4689   -5.4241   36.2098 O.3       1 UNK        -0.2850 
     27 S27        -4.5659   -9.1086   42.0535 S.3       1 UNK        -0.3200 
     28 Cl28       -4.8137  -13.4731   36.3037 Cl        1 UNK        -0.1800 
     29 H29        -6.0241   -3.3477   40.4320 H         1 UNK         0.1150 
     30 H30        -4.1151   -7.9375   36.9590 H         1 UNK         0.1150 
     31 H31        -6.8079   -1.8854   38.5978 H         1 UNK         0.1150 
     32 H32        -3.5905   -8.9571   34.8101 H         1 UNK         0.1150 
     33 H33        -7.5600   -6.7738   38.3769 H         1 UNK         0.1150 
     34 H34        -5.2669  -11.8109   38.5185 H         1 UNK         0.1150 
     35 H35        -6.0199  -10.4041   40.6703 H         1 UNK         0.0600 
     36 H36        -4.3383  -10.8137   40.4140 H         1 UNK         0.0600 
     37 H37        -9.2089   -1.9449   34.9207 H         1 UNK         0.0300 
     38 H38        -9.8093   -3.3363   35.8091 H         1 UNK         0.0300 
     39 H39        -8.4313   -3.4996   34.6840 H         1 UNK         0.0300 
     40 H40        -3.1861  -11.5350   32.2784 H         1 UNK         0.0300 
     41 H41        -2.4016  -10.3971   33.3670 H         1 UNK         0.0300 
     42 H42        -4.0743  -10.1178   32.8233 H         1 UNK         0.0300 
     43 H43        -9.1185   -7.0723   35.1684 H         1 UNK         0.0300 
     44 H44        -9.2913   -7.2044   36.9131 H         1 UNK         0.0300 
     45 H45        -7.6877   -7.3568   36.1503 H         1 UNK         0.0300 
@<TRIPOS>BOND
     1    1    3 ar   
     2    1    7 ar   
     3    1   29 1    
     4    2    4 ar   
     5    2    8 ar   
     6    2   30 1    
     7    3    9 ar   
     8    3   31 1    
     9    4   10 ar   
    10    4   32 1    
    11    5    7 ar   
    12    5   11 ar   
    13    5   33 1    
    14    6    8 ar   
    15    6   12 ar   
    16    6   34 1    
    17    7   13 1    
    18    8   15 1    
    19    9   11 ar   
    20    9   24 1    
    21   10   12 ar   
    22   10   25 1    
    23   11   26 1    
    24   12   28 1    
    25   13   20 ar   
    26   13   23 ar   
    27   14   21 ar   
    28   14   23 ar   
    29   14   27 1    
    30   15   16 1    
    31   15   22 2    
    32   16   27 1    
    33   16   35 1    
    34   16   36 1    
    35   17   24 1    
    36   17   37 1    
    37   17   38 1    
    38   17   39 1    
    39   18   25 1    
    40   18   40 1    
    41   18   41 1    
    42   18   42 1    
    43   19   26 1    
    44   19   43 1    
    45   19   44 1    
    46   19   45 1    
    47   20   21 ar   
    48   22   23 1    
@<TRIPOS>SUBSTRUCTURE
     1 UNK         1 GROUP             0       ****    0 ROOT    
@<TRIPOS>MOLECULE
ZINC71260306_20
49   52    1
SMALL
USER_CHARGES


@<TRIPOS>ATOM
      1 C1         -4.6041   -8.9430   36.4602 C.ar      1 UNK        -0.1150 
      2 C2         -4.4460   -9.4827   35.1689 C.ar      1 UNK        -0.1150 
      3 C3         -6.8444   -3.9350   39.7154 C.ar      1 UNK        -0.1150 
      4 C4         -7.7420   -5.8773   38.5535 C.ar      1 UNK        -0.1150 
      5 C5         -5.1098  -11.1604   37.3271 C.ar      1 UNK        -0.1150 
      6 C6         -6.9628   -5.3344   39.5962 C.ar      1 UNK         0.0000 
      7 C7         -4.9311   -9.7782   37.5528 C.ar      1 UNK         0.0044 
      8 C8         -4.6185  -10.8708   34.9419 C.ar      1 UNK         0.0850 
      9 C9         -7.4854   -3.0734   38.7940 C.ar      1 UNK         0.0850 
     10 C10        -8.3869   -5.0371   37.6146 C.ar      1 UNK         0.0850 
     11 C11        -8.2411   -3.6338   37.7399 C.ar      1 UNK         0.0850 
     12 C12        -4.9539  -11.6996   36.0360 C.ar      1 UNK         0.1800 
     13 C13        -6.2751   -6.2005   40.5561 C.ar      1 UNK         0.4100 
     14 C14        -5.1680   -7.7471   41.4652 C.ar      1 UNK         0.5625 
     15 C15        -5.1126   -9.2048   38.9131 C.2       1 UNK         0.3492 
     16 C16        -4.8593  -10.0608   40.1598 C.3       1 UNK         0.0836 
     17 C17        -4.1321  -10.6554   32.5958 C.3       1 UNK         0.1100 
     18 C18        -6.7093   -1.1047   39.9368 C.3       1 UNK         0.1100 
     19 C19        -9.3430   -6.9172   36.4509 C.3       1 UNK         0.1100 
     20 C20        -8.2959   -2.7810   35.5567 C.3       1 UNK         0.1100 
     21 N21        -6.1844   -5.8924   41.8575 N.2       1 UNK        -0.3633 
     22 N22        -5.4605   -6.9062   42.4526 N.2       1 UNK        -0.3633 
     23 N23        -5.4958   -7.9917   39.0243 N.2       1 UNK        -0.3897 
     24 N24        -5.6504   -7.3660   40.2682 N.pl3     1 UNK        -0.0934 
     25 O25        -4.4814  -11.4682   33.7065 O.3       1 UNK        -0.2850 
     26 O26        -7.4061   -1.6970   38.8508 O.3       1 UNK        -0.2850 
     27 O27        -9.1684   -5.5142   36.5813 O.3       1 UNK        -0.2850 
     28 O28        -8.8582   -2.7805   36.8592 O.3       1 UNK        -0.2850 
     29 S29        -4.2217   -9.2126   41.6367 S.3       1 UNK        -0.3200 
     30 Cl30       -5.1843  -13.3957   35.8099 Cl        1 UNK        -0.1800 
     31 H31        -4.4678   -7.8797   36.6042 H         1 UNK         0.1150 
     32 H32        -4.1929   -8.8067   34.3666 H         1 UNK         0.1150 
     33 H33        -6.2490   -3.5448   40.5270 H         1 UNK         0.1150 
     34 H34        -7.8391   -6.9493   38.4969 H         1 UNK         0.1150 
     35 H35        -5.3787  -11.8285   38.1316 H         1 UNK         0.1150 
     36 H36        -5.7976  -10.5437   40.4328 H         1 UNK         0.0600 
     37 H37        -4.1548  -10.8568   39.9198 H         1 UNK         0.0600 
     38 H38        -4.0614  -11.2781   31.7042 H         1 UNK         0.0300 
     39 H39        -3.1625  -10.1771   32.7407 H         1 UNK         0.0300 
     40 H40        -4.8880   -9.8925   32.4050 H         1 UNK         0.0300 
     41 H41        -6.7726   -0.0198   39.8547 H         1 UNK         0.0300 
     42 H42        -5.6527   -1.3746   39.9264 H         1 UNK         0.0300 
     43 H43        -7.1469   -1.3881   40.8951 H         1 UNK         0.0300 
     44 H44        -9.9819   -7.1204   35.5916 H         1 UNK         0.0300 
     45 H45        -9.8298   -7.3417   37.3300 H         1 UNK         0.0300 
     46 H46        -8.3921   -7.4240   36.2810 H         1 UNK         0.0300 
     47 H47        -8.6861   -1.9313   34.9969 H         1 UNK         0.0300 
     48 H48        -8.5491   -3.6839   35.0020 H         1 UNK         0.0300 
     49 H49        -7.2096   -2.6845   35.5923 H         1 UNK         0.0300 
@<TRIPOS>BOND
     1    1    2 ar   
     2    1    7 ar   
     3    1   31 1    
     4    2    8 ar   
     5    2   32 1    
     6    3    6 ar   
     7    3    9 ar   
     8    3   33 1    
     9    4    6 ar   
    10    4   10 ar   
    11    4   34 1    
    12    5    7 ar   
    13    5   12 ar   
    14    5   35 1    
    15    6   13 1    
    16    7   15 1    
    17    8   12 ar   
    18    8   25 1    
    19    9   11 ar   
    20    9   26 1    
    21   10   11 ar   
    22   10   27 1    
    23   11   28 1    
    24   12   30 1    
    25   13   21 ar   
    26   13   24 ar   
    27   14   22 ar   
    28   14   24 ar   
    29   14   29 1    
    30   15   16 1    
    31   15   23 2    
    32   16   29 1    
    33   16   36 1    
    34   16   37 1    
    35   17   25 1    
    36   17   38 1    
    37   17   39 1    
    38   17   40 1    
    39   18   26 1    
    40   18   41 1    
    41   18   42 1    
    42   18   43 1    
    43   19   27 1    
    44   19   44 1    
    45   19   45 1    
    46   19   46 1    
    47   20   28 1    
    48   20   47 1    
    49   20   48 1    
    50   20   49 1    
    51   21   22 ar   
    52   23   24 1    
@<TRIPOS>SUBSTRUCTURE
     1 UNK         1 GROUP             0       ****    0 ROOT    
@<TRIPOS>MOLECULE
ZINC71497893_25
51   54    1
SMALL
USER_CHARGES


@<TRIPOS>ATOM
      1 C1        -11.9652  -20.1418   38.0479 C.ar      1 UNK        -0.3924 
      2 C2        -14.1448  -12.7971   38.0141 C.ar      1 UNK        -0.1150 
      3 C3        -12.7458  -10.9624   38.7850 C.ar      1 UNK        -0.1150 
      4 C4        -11.7939  -21.3906   37.5042 C.ar      1 UNK        -0.0360 
      5 C5         -8.8066  -18.4161   36.1140 C.ar      1 UNK         0.7091 
      6 C6        -10.9201  -19.3069   37.5129 C.ar      1 UNK        -0.2363 
      7 C7        -12.8957  -12.3371   38.4956 C.ar      1 UNK        -0.1150 
      8 C8        -15.2260  -11.9064   37.8496 C.ar      1 UNK        -0.1150 
      9 C9        -13.8211  -10.0650   38.6255 C.ar      1 UNK        -0.1150 
     10 C10       -15.0619  -10.5345   38.1421 C.ar      1 UNK         0.0850 
     11 C11       -10.1412  -20.0955   36.6338 C.ar      1 UNK         0.7933 
     12 C12       -10.5023  -17.9596   37.6247 C.ar      1 UNK         0.6953 
     13 C13       -11.7113  -13.2322   38.6637 C.2       1 UNK         0.5850 
     14 C14       -12.0953  -16.5401   40.6919 C.3       1 UNK        -0.1200 
     15 C15       -11.8886  -15.0365   40.4409 C.3       1 UNK        -0.1200 
     16 C16       -11.0929  -17.3813   39.8831 C.3       1 UNK         0.0900 
     17 C17       -10.9321  -15.6125   38.1719 C.3       1 UNK         0.0900 
     18 C18       -11.9473  -14.7321   38.9298 C.3       1 UNK        -0.0600 
     19 C19       -16.5588  -12.4328   37.3517 C.3       1 UNK        -0.0650 
     20 C20       -13.6310   -8.6011   38.9732 C.3       1 UNK        -0.0650 
     21 C21       -16.1417   -9.0891   36.6705 C.3       1 UNK         0.1100 
     22 N22        -9.0692  -19.7049   35.9100 N.ar      1 UNK        -0.8345 
     23 N23        -9.4401  -17.5505   36.9018 N.ar      1 UNK        -0.7904 
     24 N24       -10.6950  -21.3554   36.6582 N.pl3     1 UNK        -0.5489 
     25 N25       -11.1516  -17.0327   38.4652 N.pl3     1 UNK        -0.6200 
     26 O26       -10.5575  -12.8005   38.6757 O.2       1 UNK        -0.4700 
     27 O27       -16.1058   -9.6640   37.9673 O.3       1 UNK        -0.2850 
     28 H28       -12.7306  -19.8158   38.7380 H         1 UNK         0.2215 
     29 H29       -14.2974  -13.8301   37.7456 H         1 UNK         0.1150 
     30 H30       -11.7939  -10.5931   39.1416 H         1 UNK         0.1150 
     31 H31       -12.3690  -22.2967   37.6485 H         1 UNK         0.1902 
     32 H32        -7.9637  -18.0183   35.5683 H         1 UNK         0.0283 
     33 H33       -11.9944  -16.7608   41.7550 H         1 UNK         0.0600 
     34 H34       -13.1116  -16.8216   40.4129 H         1 UNK         0.0600 
     35 H35       -12.6467  -14.4613   40.9739 H         1 UNK         0.0600 
     36 H36       -10.9218  -14.7277   40.8424 H         1 UNK         0.0600 
     37 H37       -10.0784  -17.2040   40.2441 H         1 UNK         0.0600 
     38 H38       -11.2942  -18.4408   40.0398 H         1 UNK         0.0600 
     39 H39       -11.0250  -15.4387   37.0984 H         1 UNK         0.0600 
     40 H40        -9.9097  -15.3440   38.4455 H         1 UNK         0.0600 
     41 H41       -12.9328  -15.0188   38.5778 H         1 UNK         0.0600 
     42 H42       -17.3854  -11.9102   37.8341 H         1 UNK         0.0600 
     43 H43       -16.6420  -12.2894   36.2747 H         1 UNK         0.0600 
     44 H44       -16.6681  -13.4957   37.5666 H         1 UNK         0.0600 
     45 H45       -13.3853   -8.0305   38.0782 H         1 UNK         0.0600 
     46 H46       -14.5396   -8.1856   39.4096 H         1 UNK         0.0600 
     47 H47       -12.8254   -8.4707   39.6959 H         1 UNK         0.0600 
     48 H48       -16.9733   -8.3880   36.6044 H         1 UNK         0.0300 
     49 H49       -16.2826   -9.8500   35.9021 H         1 UNK         0.0300 
     50 H50       -15.2241   -8.5426   36.4499 H         1 UNK         0.0300 
     51 H51       -10.3489  -22.1353   36.1222 H         1 UNK         0.4008 
@<TRIPOS>BOND
     1    1    4 ar   
     2    1    6 ar   
     3    1   28 1    
     4    2    7 ar   
     5    2    8 ar   
     6    2   29 1    
     7    3    7 ar   
     8    3    9 ar   
     9    3   30 1    
    10    4   24 ar   
    11    4   31 1    
    12    5   22 ar   
    13    5   23 ar   
    14    5   32 1    
    15    6   11 ar   
    16    6   12 ar   
    17    7   13 1    
    18    8   10 ar   
    19    8   19 1    
    20    9   10 ar   
    21    9   20 1    
    22   10   27 1    
    23   11   22 ar   
    24   11   24 ar   
    25   12   23 ar   
    26   12   25 1    
    27   13   18 1    
    28   13   26 2    
    29   14   15 1    
    30   14   16 1    
    31   14   33 1    
    32   14   34 1    
    33   15   18 1    
    34   15   35 1    
    35   15   36 1    
    36   16   25 1    
    37   16   37 1    
    38   16   38 1    
    39   17   18 1    
    40   17   25 1    
    41   17   39 1    
    42   17   40 1    
    43   18   41 1    
    44   19   42 1    
    45   19   43 1    
    46   19   44 1    
    47   20   45 1    
    48   20   46 1    
    49   20   47 1    
    50   21   27 1    
    51   21   48 1    
    52   21   49 1    
    53   21   50 1    
    54   24   51 1    
@<TRIPOS>SUBSTRUCTURE
     1 UNK         1 GROUP             0       ****    0 ROOT    
@<TRIPOS>MOLECULE
ZINC71589474_85
54   56    1
SMALL
USER_CHARGES


@<TRIPOS>ATOM
      1 C1         -9.4671   -7.2281   38.9799 C.ar      1 UNK        -0.1150 
      2 C2        -10.2495   -6.5216   38.0485 C.ar      1 UNK        -0.1150 
      3 C3        -10.4840   -9.3113   38.2533 C.ar      1 UNK        -0.1150 
      4 C4         -7.9156  -14.8691   37.4077 C.ar      1 UNK        -0.6890 
      5 C5         -6.7124  -13.3875   35.5385 C.ar      1 UNK         0.8740 
      6 C6         -9.5673   -8.6314   39.0902 C.ar      1 UNK        -0.1150 
      7 C7        -11.1560   -7.2057   37.2032 C.ar      1 UNK         0.0850 
      8 C8        -11.2727   -8.6103   37.3067 C.ar      1 UNK         0.0850 
      9 C9         -7.5451  -15.4034   36.1684 C.ar      1 UNK         0.5490 
     10 C10        -7.6253  -13.5168   37.6197 C.ar      1 UNK         0.8640 
     11 C11        -8.7142   -9.3379   40.0959 C.2       1 UNK         0.5850 
     12 C12        -8.1102  -13.0206   41.3034 C.3       1 UNK        -0.1200 
     13 C13        -8.0771  -11.4844   41.3734 C.3       1 UNK        -0.1200 
     14 C14        -7.4186  -13.5360   40.0286 C.3       1 UNK         0.0900 
     15 C15        -7.9572  -11.4303   38.8554 C.3       1 UNK         0.0900 
     16 C16        -8.6981  -10.8810   40.0937 C.3       1 UNK        -0.0600 
     17 C17        -6.5218  -17.6274   35.5515 C.3       1 UNK        -0.1800 
     18 C18        -8.8146  -16.9665   34.6465 C.3       1 UNK        -0.1800 
     19 C19       -11.8332   -5.1705   36.1149 C.3       1 UNK         0.1100 
     20 C20       -12.2492  -10.6428   36.4588 C.3       1 UNK         0.1100 
     21 C21        -7.8233  -16.8557   35.8145 C.3       1 UNK         0.0550 
     22 N22        -6.9392  -14.6573   35.2331 N.ar      1 UNK        -0.8390 
     23 N23        -7.0242  -12.7798   36.6752 N.ar      1 UNK        -0.8390 
     24 N24        -7.9751  -12.8969   38.8358 N.pl3     1 UNK        -0.6200 
     25 O25        -8.0211   -8.7297   40.9134 O.2       1 UNK        -0.4700 
     26 O26       -11.9485   -6.5771   36.2649 O.3       1 UNK        -0.2850 
     27 O27       -12.1703   -9.2255   36.4580 O.3       1 UNK        -0.2850 
     28 H28        -8.7813   -6.6812   39.6124 H         1 UNK         0.1150 
     29 H29       -10.1327   -5.4502   38.0027 H         1 UNK         0.1150 
     30 H30       -10.5827  -10.3805   38.3340 H         1 UNK         0.1150 
     31 H31        -8.4237  -15.4633   38.1501 H         1 UNK         0.1970 
     32 H32        -6.2264  -12.7865   34.7845 H         1 UNK        -0.0320 
     33 H33        -7.6299  -13.4458   42.1854 H         1 UNK         0.0600 
     34 H34        -9.1448  -13.3662   41.3195 H         1 UNK         0.0600 
     35 H35        -8.6151  -11.1377   42.2566 H         1 UNK         0.0600 
     36 H36        -7.0452  -11.1469   41.4842 H         1 UNK         0.0600 
     37 H37        -6.3493  -13.3222   40.0705 H         1 UNK         0.0600 
     38 H38        -7.5146  -14.6206   39.9822 H         1 UNK         0.0600 
     39 H39        -8.4107  -11.0480   37.9403 H         1 UNK         0.0600 
     40 H40        -6.9213  -11.0863   38.8514 H         1 UNK         0.0600 
     41 H41        -9.7346  -11.2130   40.0617 H         1 UNK         0.0600 
     42 H42        -5.9880  -17.2152   34.6944 H         1 UNK         0.0600 
     43 H43        -6.7189  -18.6797   35.3488 H         1 UNK         0.0600 
     44 H44        -5.8557  -17.5705   36.4125 H         1 UNK         0.0600 
     45 H45        -8.4052  -16.5169   33.7410 H         1 UNK         0.0600 
     46 H46        -9.7468  -16.4509   34.8778 H         1 UNK         0.0600 
     47 H47        -9.0532  -18.0065   34.4256 H         1 UNK         0.0600 
     48 H48       -12.5104   -4.8367   35.3289 H         1 UNK         0.0300 
     49 H49       -10.8225   -4.8824   35.8227 H         1 UNK         0.0300 
     50 H50       -12.1097   -4.6481   37.0315 H         1 UNK         0.0300 
     51 H51       -12.9645  -10.9611   35.7007 H         1 UNK         0.0300 
     52 H52       -12.5981  -11.0225   37.4199 H         1 UNK         0.0300 
     53 H53       -11.2876  -11.0970   36.2154 H         1 UNK         0.0300 
     54 H54        -8.2978  -17.3160   36.6819 H         1 UNK         0.0600 
@<TRIPOS>BOND
     1    1    2 ar   
     2    1    6 ar   
     3    1   28 1    
     4    2    7 ar   
     5    2   29 1    
     6    3    6 ar   
     7    3    8 ar   
     8    3   30 1    
     9    4    9 ar   
    10    4   10 ar   
    11    4   31 1    
    12    5   22 ar   
    13    5   23 ar   
    14    5   32 1    
    15    6   11 1    
    16    7    8 ar   
    17    7   26 1    
    18    8   27 1    
    19    9   21 1    
    20    9   22 ar   
    21   10   23 ar   
    22   10   24 1    
    23   11   16 1    
    24   11   25 2    
    25   12   13 1    
    26   12   14 1    
    27   12   33 1    
    28   12   34 1    
    29   13   16 1    
    30   13   35 1    
    31   13   36 1    
    32   14   24 1    
    33   14   37 1    
    34   14   38 1    
    35   15   16 1    
    36   15   24 1    
    37   15   39 1    
    38   15   40 1    
    39   16   41 1    
    40   17   21 1    
    41   17   42 1    
    42   17   43 1    
    43   17   44 1    
    44   18   21 1    
    45   18   45 1    
    46   18   46 1    
    47   18   47 1    
    48   19   26 1    
    49   19   48 1    
    50   19   49 1    
    51   19   50 1    
    52   20   27 1    
    53   20   51 1    
    54   20   52 1    
    55   20   53 1    
    56   21   54 1    
@<TRIPOS>SUBSTRUCTURE
     1 UNK         1 GROUP             0       ****    0 ROOT    
@<TRIPOS>MOLECULE
ZINC71589474_85
54   56    1
SMALL
USER_CHARGES


@<TRIPOS>ATOM
      1 C1         -9.4671   -7.2281   38.9799 C.ar      1 UNK        -0.1150 
      2 C2        -10.2495   -6.5216   38.0485 C.ar      1 UNK        -0.1150 
      3 C3        -10.4840   -9.3113   38.2533 C.ar      1 UNK        -0.1150 
      4 C4         -7.9156  -14.8691   37.4077 C.ar      1 UNK        -0.6890 
      5 C5         -6.7124  -13.3875   35.5385 C.ar      1 UNK         0.8740 
      6 C6         -9.5673   -8.6314   39.0902 C.ar      1 UNK        -0.1150 
      7 C7        -11.1560   -7.2057   37.2032 C.ar      1 UNK         0.0850 
      8 C8        -11.2727   -8.6103   37.3067 C.ar      1 UNK         0.0850 
      9 C9         -7.5451  -15.4034   36.1684 C.ar      1 UNK         0.5490 
     10 C10        -7.6253  -13.5168   37.6197 C.ar      1 UNK         0.8640 
     11 C11        -8.7142   -9.3379   40.0959 C.2       1 UNK         0.5850 
     12 C12        -8.1102  -13.0206   41.3034 C.3       1 UNK        -0.1200 
     13 C13        -8.0771  -11.4844   41.3734 C.3       1 UNK        -0.1200 
     14 C14        -7.4186  -13.5360   40.0286 C.3       1 UNK         0.0900 
     15 C15        -7.9572  -11.4303   38.8554 C.3       1 UNK         0.0900 
     16 C16        -8.6981  -10.8810   40.0937 C.3       1 UNK        -0.0600 
     17 C17        -6.5218  -17.6274   35.5515 C.3       1 UNK        -0.1800 
     18 C18        -8.8146  -16.9665   34.6465 C.3       1 UNK        -0.1800 
     19 C19       -11.8332   -5.1705   36.1149 C.3       1 UNK         0.1100 
     20 C20       -12.2492  -10.6428   36.4588 C.3       1 UNK         0.1100 
     21 C21        -7.8233  -16.8557   35.8145 C.3       1 UNK         0.0550 
     22 N22        -6.9392  -14.6573   35.2331 N.ar      1 UNK        -0.8390 
     23 N23        -7.0242  -12.7798   36.6752 N.ar      1 UNK        -0.8390 
     24 N24        -7.9751  -12.8969   38.8358 N.pl3     1 UNK        -0.6200 
     25 O25        -8.0211   -8.7297   40.9134 O.2       1 UNK        -0.4700 
     26 O26       -11.9485   -6.5771   36.2649 O.3       1 UNK        -0.2850 
     27 O27       -12.1703   -9.2255   36.4580 O.3       1 UNK        -0.2850 
     28 H28        -8.7813   -6.6812   39.6124 H         1 UNK         0.1150 
     29 H29       -10.1327   -5.4502   38.0027 H         1 UNK         0.1150 
     30 H30       -10.5827  -10.3805   38.3340 H         1 UNK         0.1150 
     31 H31        -8.4237  -15.4633   38.1501 H         1 UNK         0.1970 
     32 H32        -6.2264  -12.7865   34.7845 H         1 UNK        -0.0320 
     33 H33        -7.6299  -13.4458   42.1854 H         1 UNK         0.0600 
     34 H34        -9.1448  -13.3662   41.3195 H         1 UNK         0.0600 
     35 H35        -8.6151  -11.1377   42.2566 H         1 UNK         0.0600 
     36 H36        -7.0452  -11.1469   41.4842 H         1 UNK         0.0600 
     37 H37        -6.3493  -13.3222   40.0705 H         1 UNK         0.0600 
     38 H38        -7.5146  -14.6206   39.9822 H         1 UNK         0.0600 
     39 H39        -8.4107  -11.0480   37.9403 H         1 UNK         0.0600 
     40 H40        -6.9213  -11.0863   38.8514 H         1 UNK         0.0600 
     41 H41        -9.7346  -11.2130   40.0617 H         1 UNK         0.0600 
     42 H42        -5.9880  -17.2152   34.6944 H         1 UNK         0.0600 
     43 H43        -6.7189  -18.6797   35.3488 H         1 UNK         0.0600 
     44 H44        -5.8557  -17.5705   36.4125 H         1 UNK         0.0600 
     45 H45        -8.4052  -16.5169   33.7410 H         1 UNK         0.0600 
     46 H46        -9.7468  -16.4509   34.8778 H         1 UNK         0.0600 
     47 H47        -9.0532  -18.0065   34.4256 H         1 UNK         0.0600 
     48 H48       -12.5104   -4.8367   35.3289 H         1 UNK         0.0300 
     49 H49       -10.8225   -4.8824   35.8227 H         1 UNK         0.0300 
     50 H50       -12.1097   -4.6481   37.0315 H         1 UNK         0.0300 
     51 H51       -12.9645  -10.9611   35.7007 H         1 UNK         0.0300 
     52 H52       -12.5981  -11.0225   37.4199 H         1 UNK         0.0300 
     53 H53       -11.2876  -11.0970   36.2154 H         1 UNK         0.0300 
     54 H54        -8.2978  -17.3160   36.6819 H         1 UNK         0.0600 
@<TRIPOS>BOND
     1    1    2 ar   
     2    1    6 ar   
     3    1   28 1    
     4    2    7 ar   
     5    2   29 1    
     6    3    6 ar   
     7    3    8 ar   
     8    3   30 1    
     9    4    9 ar   
    10    4   10 ar   
    11    4   31 1    
    12    5   22 ar   
    13    5   23 ar   
    14    5   32 1    
    15    6   11 1    
    16    7    8 ar   
    17    7   26 1    
    18    8   27 1    
    19    9   21 1    
    20    9   22 ar   
    21   10   23 ar   
    22   10   24 1    
    23   11   16 1    
    24   11   25 2    
    25   12   13 1    
    26   12   14 1    
    27   12   33 1    
    28   12   34 1    
    29   13   16 1    
    30   13   35 1    
    31   13   36 1    
    32   14   24 1    
    33   14   37 1    
    34   14   38 1    
    35   15   16 1    
    36   15   24 1    
    37   15   39 1    
    38   15   40 1    
    39   16   41 1    
    40   17   21 1    
    41   17   42 1    
    42   17   43 1    
    43   17   44 1    
    44   18   21 1    
    45   18   45 1    
    46   18   46 1    
    47   18   47 1    
    48   19   26 1    
    49   19   48 1    
    50   19   49 1    
    51   19   50 1    
    52   20   27 1    
    53   20   51 1    
    54   20   52 1    
    55   20   53 1    
    56   21   54 1    
@<TRIPOS>SUBSTRUCTURE
     1 UNK         1 GROUP             0       ****    0 ROOT    
@<TRIPOS>MOLECULE
ZINC71714544_14
41   43    1
SMALL
USER_CHARGES


@<TRIPOS>ATOM
      1 C1         -4.7738  -10.8271   37.3326 C.ar      1 UNK        -0.1150 
      2 C2         -5.8225   -8.8993   36.2686 C.ar      1 UNK        -0.1150 
      3 C3         -4.1948  -11.1903   36.1004 C.ar      1 UNK        -0.1150 
      4 C4         -5.2421   -9.2637   35.0375 C.ar      1 UNK        -0.1150 
      5 C5         -5.5951   -9.6818   37.4218 C.ar      1 UNK        -0.0418 
      6 C6         -4.4297  -10.4098   34.9532 C.ar      1 UNK         0.2200 
      7 C7         -6.6108   -4.4441   39.6367 C.ar      1 UNK        -0.1150 
      8 C8         -8.2076   -5.4422   37.5667 C.ar      1 UNK        -0.0970 
      9 C9         -7.7440   -4.1780   37.4006 C.ar      1 UNK         0.0850 
     10 C10        -7.1019   -5.7020   39.6822 C.ar      1 UNK        -0.0387 
     11 C11        -6.8919   -3.5867   38.4681 C.ar      1 UNK         0.4700 
     12 C12        -6.8180   -6.5252   40.8497 C.2       1 UNK         0.5567 
     13 C13        -6.0800   -8.7769   41.5680 C.3       1 UNK        -0.0500 
     14 C14        -5.4715   -8.0627   39.3568 C.3       1 UNK        -0.0500 
     15 C15        -6.7976   -9.9938   40.9585 C.3       1 UNK         0.1400 
     16 C16        -6.2136   -9.2664   38.7470 C.3       1 UNK         0.2118 
     17 C17        -8.8149   -3.9098   35.2748 C.3       1 UNK         0.1100 
     18 N18        -7.9187   -6.2214   38.6792 N.pl3     1 UNK        -0.3897 
     19 N19        -6.1574   -7.6830   40.5980 N.am      1 UNK        -0.1400 
     20 O20        -6.4312   -2.4491   38.3897 O.2       1 UNK        -0.4700 
     21 O21        -7.2127   -6.2304   41.9743 O.2       1 UNK        -0.5000 
     22 O22        -6.2039  -10.3282   39.7034 O.3       1 UNK        -0.4000 
     23 O23        -8.0024   -3.3766   36.3107 O.3       1 UNK        -0.2850 
     24 F24        -3.8743  -10.7589   33.7699 F         1 UNK        -0.2200 
     25 H25        -4.5863  -11.4317   38.2084 H         1 UNK         0.1150 
     26 H26        -6.4397   -8.0146   36.3250 H         1 UNK         0.1150 
     27 H27        -3.5687  -12.0675   36.0315 H         1 UNK         0.1150 
     28 H28        -5.4144   -8.6667   34.1541 H         1 UNK         0.1150 
     29 H29        -6.0041   -4.0364   40.4329 H         1 UNK         0.1150 
     30 H30        -8.8424   -5.9441   36.8521 H         1 UNK         0.1150 
     31 H31        -6.5338   -8.5263   42.5284 H         1 UNK         0.0600 
     32 H32        -5.0363   -9.0140   41.7776 H         1 UNK         0.0600 
     33 H33        -4.4401   -8.3385   39.5818 H         1 UNK         0.0600 
     34 H34        -5.3955   -7.2474   38.6375 H         1 UNK         0.0600 
     35 H35        -6.7195  -10.8519   41.6263 H         1 UNK         0.0300 
     36 H36        -7.8613   -9.7905   40.8247 H         1 UNK         0.0300 
     37 H37        -7.2529   -9.0016   38.5461 H         1 UNK         0.0300 
     38 H38        -8.9244   -3.1648   34.4866 H         1 UNK         0.0300 
     39 H39        -9.8148   -4.1547   35.6361 H         1 UNK         0.0300 
     40 H40        -8.3630   -4.7963   34.8274 H         1 UNK         0.0300 
     41 H41        -8.3859   -7.1069   38.8296 H         1 UNK         0.3537 
@<TRIPOS>BOND
     1    1    3 ar   
     2    1    5 ar   
     3    1   25 1    
     4    2    4 ar   
     5    2    5 ar   
     6    2   26 1    
     7    3    6 ar   
     8    3   27 1    
     9    4    6 ar   
    10    4   28 1    
    11    5   16 1    
    12    6   24 1    
    13    7   10 ar   
    14    7   11 ar   
    15    7   29 1    
    16    8    9 ar   
    17    8   18 ar   
    18    8   30 1    
    19    9   11 ar   
    20    9   23 1    
    21   10   12 1    
    22   10   18 ar   
    23   11   20 2    
    24   12   19 am   BACKBONE|DICT|INTERRES
    25   12   21 2    
    26   13   15 1    
    27   13   19 1    
    28   13   31 1    
    29   13   32 1    
    30   14   16 1    
    31   14   19 1    
    32   14   33 1    
    33   14   34 1    
    34   15   22 1    
    35   15   35 1    
    36   15   36 1    
    37   16   22 1    
    38   16   37 1    
    39   17   23 1    
    40   17   38 1    
    41   17   39 1    
    42   17   40 1    
    43   18   41 1    
@<TRIPOS>SUBSTRUCTURE
     1 UNK         1 GROUP             0       ****    0 ROOT    
@<TRIPOS>MOLECULE
ZINC71730656_61
49   52    1
SMALL
USER_CHARGES


@<TRIPOS>ATOM
      1 C1        -12.6427  -11.3406   37.9173 C.ar      1 UNK        -0.1150 
      2 C2        -13.7148  -10.4385   37.7961 C.ar      1 UNK        -0.1150 
      3 C3        -11.6044  -20.5797   37.8130 C.ar      1 UNK        -0.3924 
      4 C4        -14.2142  -13.1755   38.1732 C.ar      1 UNK        -0.1150 
      5 C5        -11.2442  -21.8386   37.4003 C.ar      1 UNK        -0.0360 
      6 C6         -8.0411  -18.8093   36.8841 C.ar      1 UNK         0.7091 
      7 C7        -10.4640  -19.7269   37.5944 C.ar      1 UNK        -0.2363 
      8 C8        -12.8758  -12.7194   38.1099 C.ar      1 UNK        -0.1150 
      9 C9        -15.0524  -10.8966   37.8644 C.ar      1 UNK         0.0850 
     10 C10       -15.3027  -12.2747   38.0533 C.ar      1 UNK         0.0850 
     11 C11        -9.4333  -20.5157   37.0309 C.ar      1 UNK         0.7933 
     12 C12       -10.1314  -18.3634   37.7782 C.ar      1 UNK         0.6953 
     13 C13       -11.6995  -13.6366   38.2342 C.2       1 UNK         0.5850 
     14 C14       -12.5737  -16.9007   40.1980 C.3       1 UNK        -0.1200 
     15 C15       -12.3149  -15.4017   39.9724 C.3       1 UNK        -0.1200 
     16 C16       -11.3752  -17.7454   39.7340 C.3       1 UNK         0.0900 
     17 C17       -10.7544  -16.0175   38.0849 C.3       1 UNK         0.0900 
     18 C18       -11.9557  -15.1360   38.4932 C.3       1 UNK        -0.0600 
     19 C19       -15.9330   -8.6778   37.5659 C.3       1 UNK         0.1100 
     20 C20       -16.9262  -14.0414   38.2768 C.3       1 UNK         0.1100 
     21 N21        -8.1987  -20.1117   36.6591 N.ar      1 UNK        -0.8345 
     22 N22        -8.9059  -17.9423   37.4055 N.ar      1 UNK        -0.7904 
     23 N23        -9.9381  -21.7930   36.9352 N.pl3     1 UNK        -0.5489 
     24 N24       -11.0267  -17.4352   38.3492 N.pl3     1 UNK        -0.6200 
     25 O25       -10.5400  -13.2284   38.1564 O.2       1 UNK        -0.4700 
     26 O26       -16.1501  -10.0674   37.7559 O.3       1 UNK        -0.2850 
     27 O27       -16.6253  -12.6644   38.1122 O.3       1 UNK        -0.2850 
     28 H28       -11.6305  -10.9629   37.8619 H         1 UNK         0.1150 
     29 H29       -13.4811   -9.3953   37.6512 H         1 UNK         0.1150 
     30 H30       -12.5534  -20.2586   38.2184 H         1 UNK         0.2215 
     31 H31       -14.4102  -14.2236   38.3192 H         1 UNK         0.1150 
     32 H32       -11.8147  -22.7588   37.3967 H         1 UNK         0.1902 
     33 H33        -7.0789  -18.4010   36.6116 H         1 UNK         0.0283 
     34 H34       -12.7760  -17.0922   41.2524 H         1 UNK         0.0600 
     35 H35       -13.4668  -17.2060   39.6513 H         1 UNK         0.0600 
     36 H36       -13.1892  -14.8260   40.2762 H         1 UNK         0.0600 
     37 H37       -11.4937  -15.0742   40.6121 H         1 UNK         0.0600 
     38 H38       -10.5080  -17.5438   40.3653 H         1 UNK         0.0600 
     39 H39       -11.6057  -18.8035   39.8564 H         1 UNK         0.0600 
     40 H40       -10.5375  -15.8759   37.0246 H         1 UNK         0.0600 
     41 H41        -9.8570  -15.7172   38.6296 H         1 UNK         0.0600 
     42 H42       -12.7871  -15.4424   37.8608 H         1 UNK         0.0600 
     43 H43       -16.8956   -8.1706   37.5023 H         1 UNK         0.0300 
     44 H44       -15.3954   -8.4811   36.6374 H         1 UNK         0.0300 
     45 H45       -15.3856   -8.2412   38.4024 H         1 UNK         0.0300 
     46 H46       -18.0082  -14.1722   38.2919 H         1 UNK         0.0300 
     47 H47       -16.5352  -14.4258   39.2196 H         1 UNK         0.0300 
     48 H48       -16.5348  -14.6365   37.4508 H         1 UNK         0.0300 
     49 H49        -9.4248  -22.5782   36.5664 H         1 UNK         0.4008 
@<TRIPOS>BOND
     1    1    2 ar   
     2    1    8 ar   
     3    1   28 1    
     4    2    9 ar   
     5    2   29 1    
     6    3    5 ar   
     7    3    7 ar   
     8    3   30 1    
     9    4    8 ar   
    10    4   10 ar   
    11    4   31 1    
    12    5   23 ar   
    13    5   32 1    
    14    6   21 ar   
    15    6   22 ar   
    16    6   33 1    
    17    7   11 ar   
    18    7   12 ar   
    19    8   13 1    
    20    9   10 ar   
    21    9   26 1    
    22   10   27 1    
    23   11   21 ar   
    24   11   23 ar   
    25   12   22 ar   
    26   12   24 1    
    27   13   18 1    
    28   13   25 2    
    29   14   15 1    
    30   14   16 1    
    31   14   34 1    
    32   14   35 1    
    33   15   18 1    
    34   15   36 1    
    35   15   37 1    
    36   16   24 1    
    37   16   38 1    
    38   16   39 1    
    39   17   18 1    
    40   17   24 1    
    41   17   40 1    
    42   17   41 1    
    43   18   42 1    
    44   19   26 1    
    45   19   43 1    
    46   19   44 1    
    47   19   45 1    
    48   20   27 1    
    49   20   46 1    
    50   20   47 1    
    51   20   48 1    
    52   23   49 1    
@<TRIPOS>SUBSTRUCTURE
     1 UNK         1 GROUP             0       ****    0 ROOT    
@<TRIPOS>MOLECULE
ZINC71750476_97
54   56    1
SMALL
USER_CHARGES


@<TRIPOS>ATOM
      1 C1       -117.9286 -136.8359   37.6682 C.ar      1 UNK        -0.1150 
      2 C2       -115.5266 -136.4838   37.8177 C.ar      1 UNK        -0.1150 
      3 C3       -112.1334 -143.1655   37.1276 C.ar      1 UNK        -0.6890 
      4 C4       -114.2490 -144.6376   36.4314 C.ar      1 UNK         0.8740 
      5 C5       -116.6333 -137.3654   37.8661 C.ar      1 UNK        -0.1150 
      6 C6       -118.1228 -135.4607   37.4263 C.ar      1 UNK        -0.1150 
      7 C7       -115.7112 -135.1060   37.5800 C.ar      1 UNK        -0.1150 
      8 C8       -117.0125 -134.5886   37.3986 C.ar      1 UNK         0.0850 
      9 C9       -111.9949 -144.4231   36.5305 C.ar      1 UNK         0.5490 
     10 C10      -113.4379 -142.7120   37.3402 C.ar      1 UNK         0.8640 
     11 C11      -116.4880 -138.8325   38.1208 C.2       1 UNK         0.5850 
     12 C12      -113.0602 -139.8283   39.7021 C.3       1 UNK        -0.1200 
     13 C13      -114.4801 -139.2426   39.6389 C.3       1 UNK        -0.1200 
     14 C14      -113.0458 -141.3014   39.2580 C.3       1 UNK         0.0900 
     15 C15      -115.0253 -140.9145   37.8265 C.3       1 UNK         0.0900 
     16 C16      -115.0670 -139.4224   38.2223 C.3       1 UNK        -0.0600 
     17 C17      -119.5262 -134.9343   37.1937 C.3       1 UNK        -0.0650 
     18 C18      -114.5055 -134.1874   37.5200 C.3       1 UNK        -0.0650 
     19 C19      -117.4123 -132.5061   38.3636 C.3       1 UNK         0.1100 
     20 C20      -110.4063 -146.2255   38.3184 C.3       1 UNK         0.1100 
     21 C21      -110.6202 -145.0187   36.2836 C.3       1 UNK         0.2550 
     22 N22      -113.0577 -145.1676   36.1916 N.ar      1 UNK        -0.8390 
     23 N23      -114.4935 -143.4571   36.9822 N.ar      1 UNK        -0.8390 
     24 N24      -113.6664 -141.4590   37.9425 N.pl3     1 UNK        -0.6200 
     25 O25      -117.4594 -139.5774   38.2617 O.2       1 UNK        -0.4700 
     26 O26      -117.1919 -133.2486   37.1748 O.3       1 UNK        -0.2850 
     27 O27      -109.8773 -145.2063   37.4828 O.3       1 UNK        -0.4000 
     28 H28      -118.7857 -137.4948   37.6958 H         1 UNK         0.1150 
     29 H29      -114.5202 -136.8440   37.9642 H         1 UNK         0.1150 
     30 H30      -111.2660 -142.5832   37.3967 H         1 UNK         0.1970 
     31 H31      -115.1075 -145.2308   36.1543 H         1 UNK        -0.0320 
     32 H32      -112.6637 -139.7420   40.7144 H         1 UNK         0.0600 
     33 H33      -112.3955 -139.2489   39.0599 H         1 UNK         0.0600 
     34 H34      -115.1167 -139.7487   40.3665 H         1 UNK         0.0600 
     35 H35      -114.4605 -138.1910   39.9252 H         1 UNK         0.0600 
     36 H36      -113.5919 -141.9155   39.9759 H         1 UNK         0.0600 
     37 H37      -112.0181 -141.6646   39.2597 H         1 UNK         0.0600 
     38 H38      -115.3820 -141.0269   36.8010 H         1 UNK         0.0600 
     39 H39      -115.6983 -141.4992   38.4566 H         1 UNK         0.0600 
     40 H40      -114.4391 -138.8962   37.5049 H         1 UNK         0.0600 
     41 H41      -120.1850 -135.7217   36.8270 H         1 UNK         0.0600 
     42 H42      -119.5219 -134.1333   36.4539 H         1 UNK         0.0600 
     43 H43      -119.9420 -134.5447   38.1225 H         1 UNK         0.0600 
     44 H44      -114.3709 -133.6791   38.4746 H         1 UNK         0.0600 
     45 H45      -114.6351 -133.4322   36.7439 H         1 UNK         0.0600 
     46 H46      -113.5952 -134.7429   37.2947 H         1 UNK         0.0600 
     47 H47      -117.5444 -131.4529   38.1168 H         1 UNK         0.0300 
     48 H48      -118.3087 -132.8427   38.8854 H         1 UNK         0.0300 
     49 H49      -116.5650 -132.5871   39.0453 H         1 UNK         0.0300 
     50 H50      -110.4516 -147.1824   37.7965 H         1 UNK         0.0300 
     51 H51      -109.7632 -146.3511   39.1895 H         1 UNK         0.0300 
     52 H52      -111.4055 -145.9780   38.6793 H         1 UNK         0.0300 
     53 H53      -110.6980 -145.9586   35.7339 H         1 UNK         0.0300 
     54 H54      -110.0652 -144.3332   35.6429 H         1 UNK         0.0300 
@<TRIPOS>BOND
     1    1    5 ar   
     2    1    6 ar   
     3    1   28 1    
     4    2    5 ar   
     5    2    7 ar   
     6    2   29 1    
     7    3    9 ar   
     8    3   10 ar   
     9    3   30 1    
    10    4   22 ar   
    11    4   23 ar   
    12    4   31 1    
    13    5   11 1    
    14    6    8 ar   
    15    6   17 1    
    16    7    8 ar   
    17    7   18 1    
    18    8   26 1    
    19    9   21 1    
    20    9   22 ar   
    21   10   23 ar   
    22   10   24 1    
    23   11   16 1    
    24   11   25 2    
    25   12   13 1    
    26   12   14 1    
    27   12   32 1    
    28   12   33 1    
    29   13   16 1    
    30   13   34 1    
    31   13   35 1    
    32   14   24 1    
    33   14   36 1    
    34   14   37 1    
    35   15   16 1    
    36   15   24 1    
    37   15   38 1    
    38   15   39 1    
    39   16   40 1    
    40   17   41 1    
    41   17   42 1    
    42   17   43 1    
    43   18   44 1    
    44   18   45 1    
    45   18   46 1    
    46   19   26 1    
    47   19   47 1    
    48   19   48 1    
    49   19   49 1    
    50   20   27 1    
    51   20   50 1    
    52   20   51 1    
    53   20   52 1    
    54   21   27 1    
    55   21   53 1    
    56   21   54 1    
@<TRIPOS>SUBSTRUCTURE
     1 UNK         1 GROUP             0       ****    0 ROOT    
@<TRIPOS>MOLECULE
ZINC71751817_81
49   51    1
SMALL
USER_CHARGES


@<TRIPOS>ATOM
      1 C1         -8.4499   -5.8306   39.0737 C.ar      1 UNK        -0.1150 
      2 C2         -9.2502   -5.1148   38.1656 C.ar      1 UNK        -0.1150 
      3 C3         -9.3679   -7.9189   38.2372 C.ar      1 UNK        -0.1150 
      4 C4         -6.6315  -13.5102   37.4870 C.ar      1 UNK        -0.6890 
      5 C5         -5.3985  -12.0065   35.6613 C.ar      1 UNK         0.8740 
      6 C6         -8.4943   -7.2405   39.1205 C.ar      1 UNK        -0.1150 
      7 C7        -10.1174   -5.7957   37.2779 C.ar      1 UNK         0.0850 
      8 C8        -10.1752   -7.2074   37.3141 C.ar      1 UNK         0.0850 
      9 C9         -6.4108  -12.1450   37.6959 C.ar      1 UNK         0.8640 
     10 C10        -6.1744  -14.0468   36.2815 C.ar      1 UNK         0.7640 
     11 C11        -7.6246   -7.9547   40.1063 C.2       1 UNK         0.5850 
     12 C12        -7.0914  -11.6319   41.3496 C.3       1 UNK        -0.1200 
     13 C13        -7.0547  -10.0967   41.4138 C.3       1 UNK        -0.1200 
     14 C14        -6.3409  -12.1537   40.1121 C.3       1 UNK         0.0900 
     15 C15        -6.8304  -10.0541   38.9015 C.3       1 UNK         0.0900 
     16 C16        -7.6198   -9.4980   40.1068 C.3       1 UNK        -0.0600 
     17 C17       -10.8789   -3.7400   36.2883 C.3       1 UNK         0.1100 
     18 C18       -11.0855   -9.2365   36.3866 C.3       1 UNK         0.1100 
     19 C19        -5.8888  -15.9043   34.7897 C.3       1 UNK         0.1100 
     20 N20        -5.7944  -11.3966   36.7698 N.ar      1 UNK        -0.8390 
     21 N21        -5.5504  -13.2890   35.3646 N.ar      1 UNK        -0.8390 
     22 N22        -6.8372  -11.5221   38.8879 N.pl3     1 UNK        -0.6200 
     23 O23        -6.9122   -7.3519   40.9111 O.2       1 UNK        -0.4700 
     24 O24       -10.9259   -5.1569   36.3605 O.3       1 UNK        -0.2850 
     25 O25       -11.0368   -7.8185   36.4260 O.3       1 UNK        -0.2850 
     26 O26        -6.3683  -15.3870   36.0258 O.3       1 UNK        -0.3000 
     27 H27        -7.7954   -5.2843   39.7394 H         1 UNK         0.1150 
     28 H28        -9.1778   -4.0385   38.1710 H         1 UNK         0.1150 
     29 H29        -9.4197   -8.9940   38.2642 H         1 UNK         0.1150 
     30 H30        -7.1475  -14.1301   38.2020 H         1 UNK         0.1970 
     31 H31        -4.9000  -11.3951   34.9241 H         1 UNK        -0.0320 
     32 H32        -6.6537  -12.0543   42.2549 H         1 UNK         0.0600 
     33 H33        -8.1268  -11.9738   41.3193 H         1 UNK         0.0600 
     34 H34        -7.6269   -9.7433   42.2725 H         1 UNK         0.0600 
     35 H35        -6.0265   -9.7640   41.5657 H         1 UNK         0.0600 
     36 H36        -5.2744  -11.9423   40.2050 H         1 UNK         0.0600 
     37 H37        -6.4378  -13.2383   40.0710 H         1 UNK         0.0600 
     38 H38        -7.2528   -9.6788   37.9684 H         1 UNK         0.0600 
     39 H39        -5.7972   -9.7033   38.9336 H         1 UNK         0.0600 
     40 H40        -8.6558   -9.8255   40.0341 H         1 UNK         0.0600 
     41 H41       -11.5667   -3.3969   35.5154 H         1 UNK         0.0300 
     42 H42        -9.8816   -3.3871   36.0214 H         1 UNK         0.0300 
     43 H43       -11.1866   -3.2823   37.2295 H         1 UNK         0.0300 
     44 H44       -11.7895   -9.5491   35.6156 H         1 UNK         0.0300 
     45 H45       -11.4309   -9.6506   37.3346 H         1 UNK         0.0300 
     46 H46       -10.1132   -9.6626   36.1358 H         1 UNK         0.0300 
     47 H47        -6.1056  -16.9706   34.7335 H         1 UNK         0.0300 
     48 H48        -4.8087  -15.7793   34.6987 H         1 UNK         0.0300 
     49 H49        -6.3754  -15.4200   33.9416 H         1 UNK         0.0300 
@<TRIPOS>BOND
     1    1    2 ar   
     2    1    6 ar   
     3    1   27 1    
     4    2    7 ar   
     5    2   28 1    
     6    3    6 ar   
     7    3    8 ar   
     8    3   29 1    
     9    4    9 ar   
    10    4   10 ar   
    11    4   30 1    
    12    5   20 ar   
    13    5   21 ar   
    14    5   31 1    
    15    6   11 1    
    16    7    8 ar   
    17    7   24 1    
    18    8   25 1    
    19    9   20 ar   
    20    9   22 1    
    21   10   21 ar   
    22   10   26 1    
    23   11   16 1    
    24   11   23 2    
    25   12   13 1    
    26   12   14 1    
    27   12   32 1    
    28   12   33 1    
    29   13   16 1    
    30   13   34 1    
    31   13   35 1    
    32   14   22 1    
    33   14   36 1    
    34   14   37 1    
    35   15   16 1    
    36   15   22 1    
    37   15   38 1    
    38   15   39 1    
    39   16   40 1    
    40   17   24 1    
    41   17   41 1    
    42   17   42 1    
    43   17   43 1    
    44   18   25 1    
    45   18   44 1    
    46   18   45 1    
    47   18   46 1    
    48   19   26 1    
    49   19   47 1    
    50   19   48 1    
    51   19   49 1    
@<TRIPOS>SUBSTRUCTURE
     1 UNK         1 GROUP             0       ****    0 ROOT    
@<TRIPOS>MOLECULE
ZINC71753078_96
48   50    1
SMALL
USER_CHARGES


@<TRIPOS>ATOM
      1 C1         -7.7558   -4.9965   39.0274 C.ar      1 UNK        -0.1150 
      2 C2         -8.4712   -4.2168   38.1011 C.ar      1 UNK        -0.1150 
      3 C3         -5.7523  -13.2269   36.0417 C.ar      1 UNK        -0.1600 
      4 C4         -6.2372  -12.6820   37.2452 C.ar      1 UNK        -0.1600 
      5 C5         -8.7367   -7.0116   38.0894 C.ar      1 UNK        -0.1150 
      6 C6         -7.8746   -6.4030   39.0326 C.ar      1 UNK        -0.1150 
      7 C7         -9.3274   -4.8284   37.1542 C.ar      1 UNK         0.0850 
      8 C8         -9.4590   -6.2356   37.1480 C.ar      1 UNK         0.0850 
      9 C9         -4.9991  -12.3791   35.2072 C.ar      1 UNK         0.2540 
     10 C10        -5.9364  -11.3323   37.5321 C.ar      1 UNK         0.5690 
     11 C11        -7.0951   -7.1866   40.0410 C.2       1 UNK         0.5850 
     12 C12        -6.7529  -10.9255   41.1660 C.3       1 UNK        -0.1200 
     13 C13        -6.6663   -9.3959   41.2902 C.3       1 UNK        -0.1200 
     14 C14        -5.9658  -11.4281   39.9440 C.3       1 UNK         0.0900 
     15 C15        -6.3266   -9.2717   38.7933 C.3       1 UNK         0.0900 
     16 C16        -7.1479   -8.7281   39.9827 C.3       1 UNK        -0.0600 
     17 C17        -4.4373  -12.8668   33.8906 C.3       1 UNK        -0.0650 
     18 C18        -9.9249   -2.7121   36.1792 C.3       1 UNK         0.1100 
     19 C19       -10.4121   -8.1904   36.1115 C.3       1 UNK         0.1100 
     20 N20        -4.7442  -11.0906   35.5240 N.ar      1 UNK        -0.3310 
     21 N21        -5.2076  -10.5785   36.6695 N.ar      1 UNK        -0.3310 
     22 N22        -6.3919  -10.7371   38.7262 N.pl3     1 UNK        -0.6200 
     23 O23        -6.4136   -6.6413   40.9114 O.2       1 UNK        -0.4700 
     24 O24       -10.0564   -4.1248   36.2175 O.3       1 UNK        -0.2850 
     25 O25       -10.3049   -6.7778   36.2019 O.3       1 UNK        -0.2850 
     26 H26        -7.1079   -4.5030   39.7390 H         1 UNK         0.1150 
     27 H27        -8.3430   -3.1464   38.1388 H         1 UNK         0.1150 
     28 H28        -5.9551  -14.2514   35.7703 H         1 UNK         0.1220 
     29 H29        -6.8336  -13.2788   37.9170 H         1 UNK         0.1220 
     30 H30        -8.8449   -8.0830   38.0843 H         1 UNK         0.1150 
     31 H31        -6.3713  -11.3963   42.0728 H         1 UNK         0.0600 
     32 H32        -7.7972  -11.2283   41.0775 H         1 UNK         0.0600 
     33 H33        -7.2655   -9.0536   42.1347 H         1 UNK         0.0600 
     34 H34        -5.6353   -9.1065   41.5016 H         1 UNK         0.0600 
     35 H35        -4.8986  -11.2523   40.0906 H         1 UNK         0.0600 
     36 H36        -6.0928  -12.5073   39.8601 H         1 UNK         0.0600 
     37 H37        -6.6907   -8.8450   37.8575 H         1 UNK         0.0600 
     38 H38        -5.2834   -8.9628   38.8874 H         1 UNK         0.0600 
     39 H39        -8.1909   -9.0117   39.8513 H         1 UNK         0.0600 
     40 H40        -5.1280  -12.6324   33.0808 H         1 UNK         0.0600 
     41 H41        -3.4830  -12.3834   33.6784 H         1 UNK         0.0600 
     42 H42        -4.2752  -13.9443   33.9097 H         1 UNK         0.0600 
     43 H43       -10.5501   -2.3151   35.3795 H         1 UNK         0.0300 
     44 H44        -8.8964   -2.4130   35.9721 H         1 UNK         0.0300 
     45 H45       -10.2552   -2.2552   37.1131 H         1 UNK         0.0300 
     46 H46       -11.0844   -8.4471   35.2931 H         1 UNK         0.0300 
     47 H47       -10.8284   -8.6170   37.0249 H         1 UNK         0.0300 
     48 H48        -9.4465   -8.6527   35.9012 H         1 UNK         0.0300 
@<TRIPOS>BOND
     1    1    2 ar   
     2    1    6 ar   
     3    1   26 1    
     4    2    7 ar   
     5    2   27 1    
     6    3    4 ar   
     7    3    9 ar   
     8    3   28 1    
     9    4   10 ar   
    10    4   29 1    
    11    5    6 ar   
    12    5    8 ar   
    13    5   30 1    
    14    6   11 1    
    15    7    8 ar   
    16    7   24 1    
    17    8   25 1    
    18    9   17 1    
    19    9   20 ar   
    20   10   21 ar   
    21   10   22 1    
    22   11   16 1    
    23   11   23 2    
    24   12   13 1    
    25   12   14 1    
    26   12   31 1    
    27   12   32 1    
    28   13   16 1    
    29   13   33 1    
    30   13   34 1    
    31   14   22 1    
    32   14   35 1    
    33   14   36 1    
    34   15   16 1    
    35   15   22 1    
    36   15   37 1    
    37   15   38 1    
    38   16   39 1    
    39   17   40 1    
    40   17   41 1    
    41   17   42 1    
    42   18   24 1    
    43   18   43 1    
    44   18   44 1    
    45   18   45 1    
    46   19   25 1    
    47   19   46 1    
    48   19   47 1    
    49   19   48 1    
    50   20   21 ar   
@<TRIPOS>SUBSTRUCTURE
     1 UNK         1 GROUP             0       ****    0 ROOT    
@<TRIPOS>MOLECULE
ZINC71754797_10
41   43    1
SMALL
USER_CHARGES


@<TRIPOS>ATOM
      1 C1        -11.9501  -10.8435   38.5621 C.ar      1 UNK        -0.1150 
      2 C2         -8.4013  -15.4241   37.5374 C.ar      1 UNK        -0.1150 
      3 C3         -9.9160  -13.9082   36.3738 C.ar      1 UNK        -0.1150 
      4 C4        -12.3498  -10.0647   37.4588 C.ar      1 UNK        -0.1150 
      5 C5         -7.8818  -15.8539   36.3002 C.ar      1 UNK        -0.1150 
      6 C6         -9.3949  -14.3375   35.1371 C.ar      1 UNK        -0.1150 
      7 C7        -10.8219   -8.9081   39.5206 C.ar      1 UNK        -0.1150 
      8 C8        -11.1642  -10.2739   39.5894 C.ar      1 UNK        -0.1150 
      9 C9         -9.4256  -14.4533   37.5801 C.ar      1 UNK        -0.0418 
     10 C10       -11.9822   -8.7053   37.3793 C.ar      1 UNK        -0.1150 
     11 C11       -11.2200   -8.1290   38.4191 C.ar      1 UNK         0.1500 
     12 C12        -8.3792  -15.3117   35.1001 C.ar      1 UNK         0.1800 
     13 C13       -10.7399  -11.0840   40.7805 C.2       1 UNK         0.6150 
     14 C14        -9.6900  -13.1530   41.6372 C.3       1 UNK        -0.0500 
     15 C15        -9.3745  -12.6134   39.3111 C.3       1 UNK        -0.0500 
     16 C16       -10.2804  -14.5106   41.2216 C.3       1 UNK         0.1400 
     17 C17        -9.9845  -13.9698   38.9086 C.3       1 UNK         0.2118 
     18 C18       -12.4173   -7.8748   36.1863 C.3       1 UNK        -0.0650 
     19 N19        -9.9838  -12.1886   40.5752 N.am      1 UNK        -0.1400 
     20 O20       -11.0969  -10.7220   41.9001 O.2       1 UNK        -0.5000 
     21 O21        -9.7374  -14.9030   39.9619 O.3       1 UNK        -0.4000 
     22 O22       -10.8595   -6.8160   38.3713 O.3       1 UNK        -0.5850 
     23 Cl23       -7.7438  -15.8379   33.5858 Cl        1 UNK        -0.1800 
     24 H24       -12.2561  -11.8775   38.6220 H         1 UNK         0.1150 
     25 H25        -8.0133  -15.8439   38.4544 H         1 UNK         0.1150 
     26 H26       -10.6930  -13.1578   36.3942 H         1 UNK         0.1150 
     27 H27       -12.9468  -10.5152   36.6792 H         1 UNK         0.1150 
     28 H28        -7.1016  -16.6003   36.2709 H         1 UNK         0.1150 
     29 H29        -9.7724  -13.9209   34.2150 H         1 UNK         0.1150 
     30 H30       -10.2474   -8.4562   40.3174 H         1 UNK         0.1150 
     31 H31       -10.1009  -12.8564   42.6038 H         1 UNK         0.0600 
     32 H32        -8.6111  -13.2319   41.7753 H         1 UNK         0.0600 
     33 H33        -8.2972  -12.7172   39.4484 H         1 UNK         0.0600 
     34 H34        -9.4911  -11.8842   38.5102 H         1 UNK         0.0600 
     35 H35       -10.0383  -15.2714   41.9639 H         1 UNK         0.0300 
     36 H36       -11.3687  -14.4596   41.1598 H         1 UNK         0.0300 
     37 H37       -11.0648  -13.8736   38.7885 H         1 UNK         0.0300 
     38 H38       -13.0641   -7.0582   36.5085 H         1 UNK         0.0600 
     39 H39       -11.5489   -7.4548   35.6781 H         1 UNK         0.0600 
     40 H40       -12.9700   -8.4757   35.4637 H         1 UNK         0.0600 
     41 H41       -11.2037   -6.3676   37.6161 H         1 UNK         0.4350 
@<TRIPOS>BOND
     1    1    4 ar   
     2    1    8 ar   
     3    1   24 1    
     4    2    5 ar   
     5    2    9 ar   
     6    2   25 1    
     7    3    6 ar   
     8    3    9 ar   
     9    3   26 1    
    10    4   10 ar   
    11    4   27 1    
    12    5   12 ar   
    13    5   28 1    
    14    6   12 ar   
    15    6   29 1    
    16    7    8 ar   
    17    7   11 ar   
    18    7   30 1    
    19    8   13 1    
    20    9   17 1    
    21   10   11 ar   
    22   10   18 1    
    23   11   22 1    
    24   12   23 1    
    25   13   19 am   BACKBONE|DICT|INTERRES
    26   13   20 2    
    27   14   16 1    
    28   14   19 1    
    29   14   31 1    
    30   14   32 1    
    31   15   17 1    
    32   15   19 1    
    33   15   33 1    
    34   15   34 1    
    35   16   21 1    
    36   16   35 1    
    37   16   36 1    
    38   17   21 1    
    39   17   37 1    
    40   18   38 1    
    41   18   39 1    
    42   18   40 1    
    43   22   41 1    
@<TRIPOS>SUBSTRUCTURE
     1 UNK         1 GROUP             0       ****    0 ROOT    
@<TRIPOS>MOLECULE
ZINC71759757_17
42   44    1
SMALL
USER_CHARGES


@<TRIPOS>ATOM
      1 C1         -7.1846   -4.8326   39.6019 C.ar      1 UNK        -0.1150 
      2 C2         -5.0430  -11.3146   37.3606 C.ar      1 UNK        -0.1150 
      3 C3         -6.3861   -9.5965   36.2688 C.ar      1 UNK        -0.1150 
      4 C4         -7.5141   -4.0174   38.5033 C.ar      1 UNK        -0.1150 
      5 C5         -4.5052  -11.6863   36.1124 C.ar      1 UNK        -0.1150 
      6 C6         -5.8476   -9.9690   35.0212 C.ar      1 UNK        -0.1150 
      7 C7         -8.4149   -6.6671   38.5873 C.ar      1 UNK        -0.1150 
      8 C8         -7.6093   -6.1739   39.6351 C.ar      1 UNK        -0.1150 
      9 C9         -5.9905  -10.2712   37.4444 C.ar      1 UNK        -0.0418 
     10 C10        -8.2788   -4.5090   37.4257 C.ar      1 UNK         0.0850 
     11 C11        -8.7494   -5.8549   37.4849 C.ar      1 UNK         0.1500 
     12 C12        -4.9080  -11.0145   34.9427 C.ar      1 UNK         0.1800 
     13 C13        -7.2464   -7.0476   40.8009 C.2       1 UNK         0.6150 
     14 C14        -6.3266   -9.2119   41.5711 C.3       1 UNK        -0.0500 
     15 C15        -5.9020   -8.5525   39.2927 C.3       1 UNK        -0.0500 
     16 C16        -6.9630  -10.5128   41.0522 C.3       1 UNK         0.1400 
     17 C17        -6.5657   -9.8468   38.7861 C.3       1 UNK         0.2118 
     18 C18        -9.0435   -4.0111   35.1730 C.3       1 UNK         0.1100 
     19 N19        -6.5347   -8.1738   40.5601 N.am      1 UNK        -0.1400 
     20 O20        -7.6183   -6.7201   41.9258 O.2       1 UNK        -0.5000 
     21 O21        -6.3988  -10.8536   39.7861 O.3       1 UNK        -0.4000 
     22 O22        -9.5368   -6.4145   36.5194 O.3       1 UNK        -0.5850 
     23 O23        -8.5073   -3.5919   36.4180 O.3       1 UNK        -0.2850 
     24 Cl24       -4.2487  -11.4691   33.4155 Cl        1 UNK        -0.1800 
     25 H25        -6.5975   -4.4291   40.4153 H         1 UNK         0.1150 
     26 H26        -4.7266  -11.8342   38.2537 H         1 UNK         0.1150 
     27 H27        -7.1015   -8.7879   36.3186 H         1 UNK         0.1150 
     28 H28        -7.1723   -2.9929   38.4806 H         1 UNK         0.1150 
     29 H29        -3.7823  -12.4866   36.0512 H         1 UNK         0.1150 
     30 H30        -6.1525   -9.4526   34.1227 H         1 UNK         0.1150 
     31 H31        -8.7783   -7.6820   38.6380 H         1 UNK         0.1150 
     32 H32        -6.7611   -8.9522   42.5382 H         1 UNK         0.0600 
     33 H33        -5.2586   -9.3508   41.7430 H         1 UNK         0.0600 
     34 H34        -4.8373   -8.7228   39.4584 H         1 UNK         0.0600 
     35 H35        -5.9517   -7.7705   38.5357 H         1 UNK         0.0600 
     36 H36        -6.7799  -11.3284   41.7521 H         1 UNK         0.0300 
     37 H37        -8.0453  -10.4074   40.9617 H         1 UNK         0.0300 
     38 H38        -7.6354   -9.6889   38.6411 H         1 UNK         0.0300 
     39 H39        -8.9829   -3.1856   34.4642 H         1 UNK         0.0300 
     40 H40       -10.0959   -4.2813   35.2634 H         1 UNK         0.0300 
     41 H41        -8.4803   -4.8440   34.7499 H         1 UNK         0.0300 
     42 H42        -9.9951   -7.1904   36.8000 H         1 UNK         0.4350 
@<TRIPOS>BOND
     1    1    4 ar   
     2    1    8 ar   
     3    1   25 1    
     4    2    5 ar   
     5    2    9 ar   
     6    2   26 1    
     7    3    6 ar   
     8    3    9 ar   
     9    3   27 1    
    10    4   10 ar   
    11    4   28 1    
    12    5   12 ar   
    13    5   29 1    
    14    6   12 ar   
    15    6   30 1    
    16    7    8 ar   
    17    7   11 ar   
    18    7   31 1    
    19    8   13 1    
    20    9   17 1    
    21   10   11 ar   
    22   10   23 1    
    23   11   22 1    
    24   12   24 1    
    25   13   19 am   BACKBONE|DICT|INTERRES
    26   13   20 2    
    27   14   16 1    
    28   14   19 1    
    29   14   32 1    
    30   14   33 1    
    31   15   17 1    
    32   15   19 1    
    33   15   34 1    
    34   15   35 1    
    35   16   21 1    
    36   16   36 1    
    37   16   37 1    
    38   17   21 1    
    39   17   38 1    
    40   18   23 1    
    41   18   39 1    
    42   18   40 1    
    43   18   41 1    
    44   22   42 1    
@<TRIPOS>SUBSTRUCTURE
     1 UNK         1 GROUP             0       ****    0 ROOT    
@<TRIPOS>MOLECULE
ZINC71761338_55
51   54    1
SMALL
USER_CHARGES


@<TRIPOS>ATOM
      1 C1         -5.1201  -13.1831   35.8336 C.ar      1 UNK        -0.1150 
      2 C2         -5.8535  -12.3927   36.7374 C.ar      1 UNK        -0.1150 
      3 C3         -5.4497  -14.5383   35.6475 C.ar      1 UNK        -0.1150 
      4 C4         -8.7106  -12.4326   39.2748 C.2       1 UNK        -0.1540 
      5 C5         -9.0836  -11.2052   39.8901 C.2       1 UNK        -0.1540 
      6 C6         -7.2436  -14.3126   37.2741 C.ar      1 UNK        -0.1150 
      7 C7         -6.9257  -12.9495   37.4694 C.ar      1 UNK        -0.4134 
      8 C8         -6.5213  -15.1163   36.3704 C.ar      1 UNK         0.0850 
      9 C9         -7.7014  -12.1370   38.4007 C.2       1 UNK         0.5364 
     10 C10        -8.2912  -10.2370   39.3325 C.2       1 UNK         0.0453 
     11 C11       -11.9251   -5.2272   35.8456 C.2       1 UNK         0.5000 
     12 C12        -8.1840   -8.7844   39.5831 C.2       1 UNK         0.5777 
     13 C13       -11.6730   -4.5806   34.4966 C.3       1 UNK        -0.1200 
     14 C14       -10.1586   -4.7209   34.3140 C.3       1 UNK        -0.1200 
     15 C15       -10.8026   -7.7003   37.6401 C.3       1 UNK        -0.1200 
     16 C16        -9.3856   -5.7839   38.5595 C.3       1 UNK        -0.1200 
     17 C17        -9.6103   -5.1082   35.6948 C.3       1 UNK        -0.0500 
     18 C18       -10.6063   -8.4136   38.9911 C.3       1 UNK        -0.0500 
     19 C19        -9.2739   -6.5856   39.8691 C.3       1 UNK        -0.0500 
     20 C20       -10.6705   -6.1674   37.7839 C.3       1 UNK         0.0100 
     21 C21        -6.2288  -17.2567   35.3292 C.3       1 UNK         0.1100 
     22 N22       -10.7752   -5.5162   36.4708 N.am      1 UNK        -0.1400 
     23 N23        -9.3062   -8.0206   39.5558 N.am      1 UNK        -0.1400 
     24 O24       -13.0553   -5.4499   36.2739 O.2       1 UNK        -0.5000 
     25 O25        -7.0711   -8.3111   39.8091 O.2       1 UNK        -0.5000 
     26 O26        -7.4257  -10.8048   38.4464 O.3       1 UNK        -0.1900 
     27 O27        -6.9200  -16.4296   36.2529 O.3       1 UNK        -0.2850 
     28 H28        -4.3012  -12.7475   35.2799 H         1 UNK         0.1150 
     29 H29        -5.5827  -11.3534   36.8635 H         1 UNK         0.1150 
     30 H30        -4.8654  -15.1114   34.9452 H         1 UNK         0.1150 
     31 H31        -9.1227  -13.4146   39.4493 H         1 UNK         0.1260 
     32 H32        -9.8380  -11.0456   40.6464 H         1 UNK         0.1260 
     33 H33        -8.0601  -14.7659   37.8167 H         1 UNK         0.1150 
     34 H34       -12.2362   -5.0814   33.7089 H         1 UNK         0.0600 
     35 H35       -11.9801   -3.5355   34.5387 H         1 UNK         0.0600 
     36 H36        -9.9449   -5.5103   33.5915 H         1 UNK         0.0600 
     37 H37        -9.7039   -3.8024   33.9407 H         1 UNK         0.0600 
     38 H38       -10.0654   -8.0693   36.9249 H         1 UNK         0.0600 
     39 H39       -11.7818   -7.9539   37.2300 H         1 UNK         0.0600 
     40 H40        -9.3816   -4.7148   38.7757 H         1 UNK         0.0600 
     41 H41        -8.4947   -5.9844   37.9632 H         1 UNK         0.0600 
     42 H42        -8.8770   -5.9124   35.6203 H         1 UNK         0.0600 
     43 H43        -9.1347   -4.2512   36.1742 H         1 UNK         0.0600 
     44 H44       -11.4009   -8.1293   39.6827 H         1 UNK         0.0600 
     45 H45       -10.7199   -9.4845   38.8401 H         1 UNK         0.0600 
     46 H46        -8.3682   -6.2986   40.4071 H         1 UNK         0.0600 
     47 H47       -10.1013   -6.3390   40.5359 H         1 UNK         0.0600 
     48 H48       -11.5142   -5.8224   38.3863 H         1 UNK         0.0600 
     49 H49        -6.6671  -18.2544   35.3420 H         1 UNK         0.0300 
     50 H50        -5.1753  -17.3555   35.5937 H         1 UNK         0.0300 
     51 H51        -6.3124  -16.8729   34.3115 H         1 UNK         0.0300 
@<TRIPOS>BOND
     1    1    2 ar   
     2    1    3 ar   
     3    1   28 1    
     4    2    7 ar   
     5    2   29 1    
     6    3    8 ar   
     7    3   30 1    
     8    4    5 1    
     9    4    9 2    
    10    4   31 1    
    11    5   10 2    
    12    5   32 1    
    13    6    7 ar   
    14    6    8 ar   
    15    6   33 1    
    16    7    9 1    
    17    8   27 1    
    18    9   26 1    
    19   10   12 1    
    20   10   26 1    
    21   11   13 1    
    22   11   22 am   BACKBONE|DICT|INTERRES
    23   11   24 2    
    24   12   23 am   BACKBONE|DICT|INTERRES
    25   12   25 2    
    26   13   14 1    
    27   13   34 1    
    28   13   35 1    
    29   14   17 1    
    30   14   36 1    
    31   14   37 1    
    32   15   18 1    
    33   15   20 1    
    34   15   38 1    
    35   15   39 1    
    36   16   19 1    
    37   16   20 1    
    38   16   40 1    
    39   16   41 1    
    40   17   22 1    
    41   17   42 1    
    42   17   43 1    
    43   18   23 1    
    44   18   44 1    
    45   18   45 1    
    46   19   23 1    
    47   19   46 1    
    48   19   47 1    
    49   20   22 1    
    50   20   48 1    
    51   21   27 1    
    52   21   49 1    
    53   21   50 1    
    54   21   51 1    
@<TRIPOS>SUBSTRUCTURE
     1 UNK         1 GROUP             0       ****    0 ROOT    
@<TRIPOS>MOLECULE
ZINC71761956_104
51   54    1
SMALL
USER_CHARGES


@<TRIPOS>ATOM
      1 C1         -3.0042  -10.4295   33.0044 C.ar      1 UNK        -0.1399 
      2 C2         -2.7277   -9.0918   33.3392 C.ar      1 UNK        -0.1399 
      3 C3         -6.5690   -3.5181   39.5539 C.ar      1 UNK        -0.1150 
      4 C4         -3.6670  -11.2593   33.9292 C.ar      1 UNK        -0.3245 
      5 C5         -3.1149   -8.5917   34.5972 C.ar      1 UNK        -0.3245 
      6 C6         -7.2837   -2.6978   38.6658 C.ar      1 UNK        -0.1150 
      7 C7         -7.4641   -5.4753   38.4350 C.ar      1 UNK        -0.1150 
      8 C8         -5.0479  -11.0708   37.2540 C.ar      1 UNK         0.1442 
      9 C9         -6.6474   -4.9210   39.4489 C.ar      1 UNK        -0.1150 
     10 C10        -4.0592  -10.7727   35.1921 C.ar      1 UNK         0.4087 
     11 C11        -3.7770   -9.4122   35.5335 C.ar      1 UNK         0.4086 
     12 C12        -8.0907   -3.2415   37.6482 C.ar      1 UNK         0.0850 
     13 C13        -8.1809   -4.6608   37.5182 C.ar      1 UNK         0.0850 
     14 C14        -4.7687   -9.7272   37.6073 C.ar      1 UNK         0.4310 
     15 C15        -5.8717   -5.7599   40.4155 C.2       1 UNK         0.5850 
     16 C16        -5.5129   -9.5667   41.2811 C.3       1 UNK        -0.1200 
     17 C17        -5.4263   -8.0487   41.5127 C.3       1 UNK        -0.1200 
     18 C18        -4.7302   -9.9874   40.0253 C.3       1 UNK         0.0900 
     19 C19        -5.0711   -7.7484   39.0356 C.3       1 UNK         0.0900 
     20 C20        -5.9045   -7.2938   40.2528 C.3       1 UNK        -0.0600 
     21 C21        -9.6072   -2.6765   35.8280 C.3       1 UNK         0.1100 
     22 C22        -8.9087   -6.6134   36.2842 C.3       1 UNK         0.1100 
     23 N23        -4.6967  -11.5936   36.0588 N.ar      1 UNK        -0.5226 
     24 N24        -4.1366   -8.9053   36.7365 N.ar      1 UNK        -0.5225 
     25 N25        -5.1485   -9.2035   38.8609 N.pl3     1 UNK        -0.6200 
     26 O26        -5.2091   -5.2669   41.3299 O.2       1 UNK        -0.4700 
     27 O27        -8.7182   -2.2919   36.8638 O.3       1 UNK        -0.2850 
     28 O28        -8.9560   -5.2119   36.5164 O.3       1 UNK        -0.2850 
     29 H29        -2.7096  -10.8203   32.0396 H         1 UNK         0.1615 
     30 H30        -2.2193   -8.4487   32.6333 H         1 UNK         0.1615 
     31 H31        -5.9589   -3.0595   40.3203 H         1 UNK         0.1150 
     32 H32        -3.8826  -12.2861   33.6757 H         1 UNK         0.1858 
     33 H33        -2.9048   -7.5653   34.8578 H         1 UNK         0.1858 
     34 H34        -7.2124   -1.6245   38.7637 H         1 UNK         0.1150 
     35 H35        -7.5395   -6.5462   38.3598 H         1 UNK         0.1150 
     36 H36        -5.5767  -11.7325   37.9233 H         1 UNK         0.0868 
     37 H37        -5.1308  -10.0996   42.1529 H         1 UNK         0.0600 
     38 H38        -6.5576   -9.8614   41.1739 H         1 UNK         0.0600 
     39 H39        -6.0287   -7.7667   42.3771 H         1 UNK         0.0600 
     40 H40        -4.3965   -7.7735   41.7463 H         1 UNK         0.0600 
     41 H41        -3.6617   -9.8318   40.1846 H         1 UNK         0.0600 
     42 H42        -4.8652  -11.0570   39.8686 H         1 UNK         0.0600 
     43 H43        -5.4189   -7.2447   38.1333 H         1 UNK         0.0600 
     44 H44        -4.0265   -7.4590   39.1655 H         1 UNK         0.0600 
     45 H45        -6.9444   -7.5754   40.0942 H         1 UNK         0.0600 
     46 H46       -10.0178   -1.7803   35.3635 H         1 UNK         0.0300 
     47 H47       -10.4475   -3.2547   36.2133 H         1 UNK         0.0300 
     48 H48        -9.0938   -3.2383   35.0470 H         1 UNK         0.0300 
     49 H49        -9.5099   -6.8504   35.4066 H         1 UNK         0.0300 
     50 H50        -9.3235   -7.1726   37.1238 H         1 UNK         0.0300 
     51 H51        -7.8911   -6.9539   36.0857 H         1 UNK         0.0300 
@<TRIPOS>BOND
     1    1    2 ar   
     2    1    4 ar   
     3    1   29 1    
     4    2    5 ar   
     5    2   30 1    
     6    3    6 ar   
     7    3    9 ar   
     8    3   31 1    
     9    4   10 ar   
    10    4   32 1    
    11    5   11 ar   
    12    5   33 1    
    13    6   12 ar   
    14    6   34 1    
    15    7    9 ar   
    16    7   13 ar   
    17    7   35 1    
    18    8   14 ar   
    19    8   23 ar   
    20    8   36 1    
    21    9   15 1    
    22   10   11 ar   
    23   10   23 ar   
    24   11   24 ar   
    25   12   13 ar   
    26   12   27 1    
    27   13   28 1    
    28   14   24 ar   
    29   14   25 1    
    30   15   20 1    
    31   15   26 2    
    32   16   17 1    
    33   16   18 1    
    34   16   37 1    
    35   16   38 1    
    36   17   20 1    
    37   17   39 1    
    38   17   40 1    
    39   18   25 1    
    40   18   41 1    
    41   18   42 1    
    42   19   20 1    
    43   19   25 1    
    44   19   43 1    
    45   19   44 1    
    46   20   45 1    
    47   21   27 1    
    48   21   46 1    
    49   21   47 1    
    50   21   48 1    
    51   22   28 1    
    52   22   49 1    
    53   22   50 1    
    54   22   51 1    
@<TRIPOS>SUBSTRUCTURE
     1 UNK         1 GROUP             0       ****    0 ROOT    
@<TRIPOS>MOLECULE
ZINC71762414_109
47   49    1
SMALL
USER_CHARGES


@<TRIPOS>ATOM
      1 C1         -6.5738  -11.2357   37.4006 C.1       1 UNK         0.3950 
      2 C2         -3.4445  -10.6639   35.4035 C.ar      1 UNK        -0.4470 
      3 C3         -4.6880  -11.1817   35.8078 C.ar      1 UNK         0.2270 
      4 C4         -6.4989   -3.5679   39.3723 C.ar      1 UNK        -0.1150 
      5 C5         -7.2097   -2.8008   38.4348 C.ar      1 UNK        -0.1150 
      6 C6         -7.5099   -5.5777   38.4635 C.ar      1 UNK        -0.1150 
      7 C7         -2.8358   -9.6868   36.2069 C.ar      1 UNK         0.4730 
      8 C8         -5.2768  -10.7080   36.9957 C.ar      1 UNK        -0.2570 
      9 C9         -6.6321   -4.9703   39.3927 C.ar      1 UNK        -0.1150 
     10 C10        -8.0702   -3.3991   37.4942 C.ar      1 UNK         0.0850 
     11 C11        -8.2351   -4.8174   37.5078 C.ar      1 UNK         0.0850 
     12 C12        -4.5842   -9.7210   37.7388 C.ar      1 UNK         0.5109 
     13 C13        -5.8579   -5.7537   40.4053 C.2       1 UNK         0.5850 
     14 C14        -5.3877   -9.5273   41.3764 C.3       1 UNK        -0.1200 
     15 C15        -5.3407   -8.0002   41.5684 C.3       1 UNK        -0.1200 
     16 C16        -4.6261   -9.9551   40.1083 C.3       1 UNK         0.0900 
     17 C17        -5.0287   -7.7594   39.0812 C.3       1 UNK         0.0900 
     18 C18        -5.8573   -7.2914   40.2958 C.3       1 UNK        -0.0600 
     19 C19        -9.4495   -2.9548   35.5381 C.3       1 UNK         0.1100 
     20 C20        -9.2550   -6.8294   36.6199 C.3       1 UNK         0.1100 
     21 N21        -7.6043  -11.6561   37.7183 N.1       1 UNK        -0.4300 
     22 N22        -3.3891   -9.2269   37.3459 N.ar      1 UNK        -0.6780 
     23 N23        -5.1020   -9.2135   38.9434 N.pl3     1 UNK        -0.4459 
     24 O24        -5.2115   -5.2145   41.3047 O.2       1 UNK        -0.4700 
     25 O25        -8.6828   -2.5000   36.6416 O.3       1 UNK        -0.2850 
     26 O26        -9.0941   -5.4172   36.6073 O.3       1 UNK        -0.2850 
     27 H27        -2.9662  -11.0051   34.4972 H         1 UNK         0.1550 
     28 H28        -5.1827  -11.9325   35.2080 H         1 UNK         0.0650 
     29 H29        -5.8449   -3.0696   40.0750 H         1 UNK         0.1150 
     30 H30        -7.0917   -1.7271   38.4305 H         1 UNK         0.1150 
     31 H31        -7.6284   -6.6469   38.4862 H         1 UNK         0.1150 
     32 H32        -1.8813   -9.2640   35.9296 H         1 UNK         0.0120 
     33 H33        -4.9694  -10.0283   42.2501 H         1 UNK         0.0600 
     34 H34        -6.4259   -9.8546   41.3013 H         1 UNK         0.0600 
     35 H35        -5.9390   -7.7125   42.4338 H         1 UNK         0.0600 
     36 H36        -4.3164   -7.6895   41.7812 H         1 UNK         0.0600 
     37 H37        -3.5564   -9.7759   40.2318 H         1 UNK         0.0600 
     38 H38        -4.7488  -11.0272   39.9458 H         1 UNK         0.0600 
     39 H39        -5.3778   -7.2934   38.1591 H         1 UNK         0.0600 
     40 H40        -3.9870   -7.4568   39.2054 H         1 UNK         0.0600 
     41 H41        -6.8916   -7.6056   40.1651 H         1 UNK         0.0600 
     42 H42        -9.7427   -2.0967   34.9336 H         1 UNK         0.0300 
     43 H43       -10.3662   -3.4476   35.8637 H         1 UNK         0.0300 
     44 H44        -8.8745   -3.6223   34.8950 H         1 UNK         0.0300 
     45 H45        -9.9613   -7.1152   35.8407 H         1 UNK         0.0300 
     46 H46        -9.6598   -7.1785   37.5709 H         1 UNK         0.0300 
     47 H47        -8.3146   -7.3421   36.4125 H         1 UNK         0.0300 
@<TRIPOS>BOND
     1    1    8 1    
     2    1   21 3    
     3    2    3 ar   
     4    2    7 ar   
     5    2   27 1    
     6    3    8 ar   
     7    3   28 1    
     8    4    5 ar   
     9    4    9 ar   
    10    4   29 1    
    11    5   10 ar   
    12    5   30 1    
    13    6    9 ar   
    14    6   11 ar   
    15    6   31 1    
    16    7   22 ar   
    17    7   32 1    
    18    8   12 ar   
    19    9   13 1    
    20   10   11 ar   
    21   10   25 1    
    22   11   26 1    
    23   12   22 ar   
    24   12   23 1    
    25   13   18 1    
    26   13   24 2    
    27   14   15 1    
    28   14   16 1    
    29   14   33 1    
    30   14   34 1    
    31   15   18 1    
    32   15   35 1    
    33   15   36 1    
    34   16   23 1    
    35   16   37 1    
    36   16   38 1    
    37   17   18 1    
    38   17   23 1    
    39   17   39 1    
    40   17   40 1    
    41   18   41 1    
    42   19   25 1    
    43   19   42 1    
    44   19   43 1    
    45   19   44 1    
    46   20   26 1    
    47   20   45 1    
    48   20   46 1    
    49   20   47 1    
@<TRIPOS>SUBSTRUCTURE
     1 UNK         1 GROUP             0       ****    0 ROOT    
@<TRIPOS>MOLECULE
ZINC71797909_239
49   51    1
SMALL
USER_CHARGES


@<TRIPOS>ATOM
      1 C1         -5.7809  -11.8317   36.9861 C.ar      1 UNK        -0.1150 
      2 C2         -4.2917   -9.9177   36.7778 C.ar      1 UNK        -0.1150 
      3 C3         -5.4152  -12.2557   35.6935 C.ar      1 UNK        -0.1150 
      4 C4         -3.9252  -10.3408   35.4855 C.ar      1 UNK        -0.1150 
      5 C5         -7.3820   -5.6126   37.5083 C.ar      1 UNK        -0.1150 
      6 C6         -8.0693   -4.7090   36.6826 C.ar      1 UNK        -0.1150 
      7 C7         -7.5382   -4.0236   39.3389 C.ar      1 UNK        -0.1150 
      8 C8         -6.4899   -9.8870   41.1588 C.2       1 UNK        -0.3376 
      9 C9         -5.2222  -10.6575   37.5422 C.ar      1 UNK         0.0000 
     10 C10        -4.4848  -11.5129   34.9397 C.ar      1 UNK        -0.1150 
     11 C11        -7.1184   -5.2816   38.8481 C.ar      1 UNK         0.0850 
     12 C12        -8.5073   -3.4587   37.1611 C.ar      1 UNK         0.0850 
     13 C13        -8.2387   -3.0993   38.5176 C.ar      1 UNK         0.0850 
     14 C14        -5.7475   -8.8232   40.7100 C.2       1 UNK         0.1693 
     15 C15        -5.5939  -10.1945   38.8821 C.2       1 UNK         0.3009 
     16 C16        -6.2859   -6.3646   40.9545 C.2       1 UNK         0.5000 
     17 C17        -5.0188  -11.3799   32.4736 C.3       1 UNK        -0.1800 
     18 C18        -9.7278   -1.4406   36.5525 C.3       1 UNK         0.1100 
     19 C19        -8.4448   -1.5525   40.3674 C.3       1 UNK         0.1100 
     20 C20        -4.0955  -11.9671   33.5464 C.3       1 UNK        -0.0050 
     21 C21        -5.4434   -7.5470   41.4525 C.3       1 UNK        -0.0050 
     22 N22        -5.2409   -9.0192   39.4183 N.2       1 UNK        -0.4803 
     23 N23        -6.4048   -6.2379   39.6200 N.am      1 UNK        -0.3850 
     24 O24        -6.7856   -5.5974   41.7764 O.2       1 UNK        -0.5000 
     25 O25        -9.1689   -2.6994   36.2140 O.3       1 UNK        -0.2850 
     26 O26        -8.6510   -1.8709   38.9978 O.3       1 UNK        -0.2850 
     27 S27        -6.5889  -11.1611   39.9740 S.3       1 UNK         0.0010 
     28 H28        -6.4990  -12.4193   37.5376 H         1 UNK         0.1150 
     29 H29        -3.8515   -9.0182   37.1831 H         1 UNK         0.1150 
     30 H30        -5.8543  -13.1530   35.2816 H         1 UNK         0.1150 
     31 H31        -3.2141   -9.7606   34.9153 H         1 UNK         0.1150 
     32 H32        -7.0658   -6.5625   37.1014 H         1 UNK         0.1150 
     33 H33        -8.2699   -4.9777   35.6561 H         1 UNK         0.1150 
     34 H34        -7.3058   -3.7664   40.3577 H         1 UNK         0.1150 
     35 H35        -6.9892   -9.9994   42.1104 H         1 UNK         0.2317 
     36 H36        -6.0533  -11.6837   32.6362 H         1 UNK         0.0600 
     37 H37        -4.7247  -11.7156   31.4791 H         1 UNK         0.0600 
     38 H38        -4.9865  -10.2901   32.4813 H         1 UNK         0.0600 
     39 H39       -10.2388   -1.0340   35.6801 H         1 UNK         0.0300 
     40 H40        -8.9572   -0.7239   36.8380 H         1 UNK         0.0300 
     41 H41       -10.4684   -1.5300   37.3480 H         1 UNK         0.0300 
     42 H42        -8.8741   -0.5726   40.5751 H         1 UNK         0.0300 
     43 H43        -7.3826   -1.5024   40.6105 H         1 UNK         0.0300 
     44 H44        -8.9362   -2.2711   41.0251 H         1 UNK         0.0300 
     45 H45        -3.0628  -11.6769   33.3480 H         1 UNK         0.0600 
     46 H46        -4.1193  -13.0568   33.5027 H         1 UNK         0.0600 
     47 H47        -5.6201   -7.6760   42.5208 H         1 UNK         0.0600 
     48 H48        -4.3903   -7.2852   41.3483 H         1 UNK         0.0600 
     49 H49        -5.9848   -7.0041   39.1061 H         1 UNK         0.3000 
@<TRIPOS>BOND
     1    1    3 ar   
     2    1    9 ar   
     3    1   28 1    
     4    2    4 ar   
     5    2    9 ar   
     6    2   29 1    
     7    3   10 ar   
     8    3   30 1    
     9    4   10 ar   
    10    4   31 1    
    11    5    6 ar   
    12    5   11 ar   
    13    5   32 1    
    14    6   12 ar   
    15    6   33 1    
    16    7   11 ar   
    17    7   13 ar   
    18    7   34 1    
    19    8   14 2    
    20    8   27 1    
    21    8   35 1    
    22    9   15 1    
    23   10   20 1    
    24   11   23 1    
    25   12   13 ar   
    26   12   25 1    
    27   13   26 1    
    28   14   21 1    
    29   14   22 1    
    30   15   22 2    
    31   15   27 1    
    32   16   21 1    
    33   16   23 am   BACKBONE|DICT|INTERRES
    34   16   24 2    
    35   17   20 1    
    36   17   36 1    
    37   17   37 1    
    38   17   38 1    
    39   18   25 1    
    40   18   39 1    
    41   18   40 1    
    42   18   41 1    
    43   19   26 1    
    44   19   42 1    
    45   19   43 1    
    46   19   44 1    
    47   20   45 1    
    48   20   46 1    
    49   21   47 1    
    50   21   48 1    
    51   23   49 1    
@<TRIPOS>SUBSTRUCTURE
     1 UNK         1 GROUP             0       ****    0 ROOT    
@<TRIPOS>MOLECULE
ZINC71826663_181
40   42    1
SMALL
USER_CHARGES


@<TRIPOS>ATOM
      1 C1         -6.7762  -13.2904   36.0431 C.ar      1 UNK        -0.1150 
      2 C2         -7.4182  -12.8532   37.2166 C.ar      1 UNK        -0.1150 
      3 C3         -6.8547  -14.6418   35.6542 C.ar      1 UNK        -0.1150 
      4 C4         -8.2142  -15.1208   37.6150 C.ar      1 UNK        -0.1150 
      5 C5         -9.6360   -5.9825   38.8979 C.ar      1 UNK         0.5281 
      6 C6         -8.1471  -13.7675   38.0049 C.ar      1 UNK        -0.0418 
      7 C7         -7.5773  -15.5724   36.4418 C.ar      1 UNK         0.0850 
      8 C8        -10.2169   -7.9651   38.9906 C.ar      1 UNK         0.4774 
      9 C9         -9.9707   -9.9563   40.4018 C.2       1 UNK         0.5000 
     10 C10       -12.2459   -9.3655   37.5455 C.3       1 UNK        -0.1200 
     11 C11       -11.8088   -7.9814   37.0466 C.3       1 UNK         0.0025 
     12 C12       -11.0879  -10.1485   38.2022 C.3       1 UNK        -0.0500 
     13 C13        -7.0964  -17.3896   34.9501 C.3       1 UNK         0.1100 
     14 C14        -8.8362  -13.3156   39.2790 C.3       1 UNK         0.1818 
     15 C15        -9.7761  -11.4809   40.4474 C.3       1 UNK         0.1400 
     16 N16        -9.3825   -7.1263   39.5999 N.2       1 UNK        -0.6329 
     17 N17       -10.5218   -6.0911   37.9068 N.2       1 UNK        -0.5282 
     18 N18       -10.8876   -7.3890   37.9884 N.pl3     1 UNK         0.0656 
     19 N19       -10.3989   -9.3641   39.2530 N.am      1 UNK        -0.1550 
     20 O20        -9.7750   -9.3435   41.4512 O.2       1 UNK        -0.5000 
     21 O21        -7.7047  -16.9107   36.1406 O.3       1 UNK        -0.2850 
     22 O22        -9.0812  -11.9188   39.2861 O.3       1 UNK        -0.4000 
     23 H23        -6.2197  -12.5870   35.4410 H         1 UNK         0.1150 
     24 H24        -7.3496  -11.8153   37.5109 H         1 UNK         0.1150 
     25 H25        -6.3482  -14.9394   34.7491 H         1 UNK         0.1150 
     26 H26        -8.7623  -15.8282   38.2198 H         1 UNK         0.1150 
     27 H27        -9.1406   -5.0464   39.1120 H         1 UNK         0.0525 
     28 H28       -13.0406   -9.2370   38.2824 H         1 UNK         0.0600 
     29 H29       -12.6818   -9.9393   36.7267 H         1 UNK         0.0600 
     30 H30       -11.2957   -8.0666   36.0880 H         1 UNK         0.0600 
     31 H31       -12.6651   -7.3203   36.9071 H         1 UNK         0.0600 
     32 H32       -11.5012  -11.0837   38.5795 H         1 UNK         0.0600 
     33 H33       -10.3496  -10.4206   37.4460 H         1 UNK         0.0600 
     34 H34        -7.2950  -18.4565   34.8487 H         1 UNK         0.0300 
     35 H35        -6.0139  -17.2569   34.9732 H         1 UNK         0.0300 
     36 H36        -7.5035  -16.8936   34.0678 H         1 UNK         0.0300 
     37 H37        -9.7801  -13.8546   39.3786 H         1 UNK         0.0300 
     38 H38        -8.2097  -13.5895   40.1293 H         1 UNK         0.0300 
     39 H39       -10.7454  -11.9721   40.5394 H         1 UNK         0.0300 
     40 H40        -9.1993  -11.7380   41.3376 H         1 UNK         0.0300 
@<TRIPOS>BOND
     1    1    2 ar   
     2    1    3 ar   
     3    1   23 1    
     4    2    6 ar   
     5    2   24 1    
     6    3    7 ar   
     7    3   25 1    
     8    4    6 ar   
     9    4    7 ar   
    10    4   26 1    
    11    5   16 ar   
    12    5   17 ar   
    13    5   27 1    
    14    6   14 1    
    15    7   21 1    
    16    8   16 ar   
    17    8   18 ar   
    18    8   19 1    
    19    9   15 1    
    20    9   19 am   BACKBONE|DICT|INTERRES
    21    9   20 2    
    22   10   11 1    
    23   10   12 1    
    24   10   28 1    
    25   10   29 1    
    26   11   18 1    
    27   11   30 1    
    28   11   31 1    
    29   12   19 1    
    30   12   32 1    
    31   12   33 1    
    32   13   21 1    
    33   13   34 1    
    34   13   35 1    
    35   13   36 1    
    36   14   22 1    
    37   14   37 1    
    38   14   38 1    
    39   15   22 1    
    40   15   39 1    
    41   15   40 1    
    42   17   18 ar   
@<TRIPOS>SUBSTRUCTURE
     1 UNK         1 GROUP             0       ****    0 ROOT    
@<TRIPOS>MOLECULE
ZINC71835900_9
45   47    1
SMALL
USER_CHARGES


@<TRIPOS>ATOM
      1 C1         -4.3317   -8.5065   36.4878 C.ar      1 UNK        -0.1150 
      2 C2         -4.9007   -9.4192   37.3944 C.ar      1 UNK        -0.1150 
      3 C3         -4.0903   -7.1802   36.8884 C.ar      1 UNK        -0.1150 
      4 C4         -6.6727   -3.9037   39.5283 C.ar      1 UNK        -0.1150 
      5 C5         -7.6446   -5.9719   38.6822 C.ar      1 UNK        -0.1150 
      6 C6         -6.8008   -5.3065   39.5985 C.ar      1 UNK        -0.1150 
      7 C7         -5.2577   -9.0059   38.6946 C.ar      1 UNK        -0.1150 
      8 C8         -5.0712   -7.6522   39.0845 C.ar      1 UNK        -0.0383 
      9 C9         -7.3414   -3.1648   38.5229 C.ar      1 UNK         0.0850 
     10 C10        -8.3131   -5.2560   37.6617 C.ar      1 UNK         0.0850 
     11 C11        -8.1510   -3.8541   37.5919 C.ar      1 UNK         0.0850 
     12 C12        -4.4417   -6.7555   38.1824 C.ar      1 UNK         0.2200 
     13 C13        -6.0961   -6.0653   40.6933 C.2       1 UNK         0.6150 
     14 C14        -5.7988  -10.0488   39.6653 C.3       1 UNK        -0.0050 
     15 C15        -6.2163   -9.4826   41.0329 C.3       1 UNK        -0.1200 
     16 C16        -5.3720   -8.2669   41.4435 C.3       1 UNK        -0.0500 
     17 C17        -6.4528   -1.0779   39.3193 C.3       1 UNK         0.1100 
     18 C18        -9.2570   -7.2633   36.7329 C.3       1 UNK         0.1100 
     19 C19        -8.0443   -3.0137   35.4281 C.3       1 UNK         0.1100 
     20 N20        -5.4750   -7.2420   40.3975 N.am      1 UNK        -0.0317 
     21 O21        -6.1127   -5.5930   41.8314 O.2       1 UNK        -0.5000 
     22 O22        -7.2475   -1.7947   38.3868 O.3       1 UNK        -0.2850 
     23 O23        -9.1214   -5.8505   36.7142 O.3       1 UNK        -0.2850 
     24 O24        -8.8050   -3.1488   36.6154 O.3       1 UNK        -0.2850 
     25 F25        -4.1405   -5.4892   38.5555 F         1 UNK        -0.2200 
     26 H26        -4.0564   -8.8293   35.4942 H         1 UNK         0.1150 
     27 H27        -5.0494  -10.4460   37.0908 H         1 UNK         0.1150 
     28 H28        -3.6236   -6.4833   36.2080 H         1 UNK         0.1150 
     29 H29        -6.0437   -3.4174   40.2588 H         1 UNK         0.1150 
     30 H30        -7.7586   -7.0407   38.7746 H         1 UNK         0.1150 
     31 H31        -6.6333  -10.5820   39.2078 H         1 UNK         0.0600 
     32 H32        -5.0082  -10.7854   39.8157 H         1 UNK         0.0600 
     33 H33        -7.2587   -9.1649   40.9770 H         1 UNK         0.0600 
     34 H34        -6.1804  -10.2631   41.7939 H         1 UNK         0.0600 
     35 H35        -5.6930   -7.9174   42.4269 H         1 UNK         0.0600 
     36 H36        -4.3246   -8.5509   41.5527 H         1 UNK         0.0600 
     37 H37        -6.4949   -0.0146   39.0841 H         1 UNK         0.0300 
     38 H38        -5.4074   -1.3852   39.2703 H         1 UNK         0.0300 
     39 H39        -6.8209   -1.2039   40.3383 H         1 UNK         0.0300 
     40 H40        -9.9003   -7.5725   35.9093 H         1 UNK         0.0300 
     41 H41        -9.7203   -7.6064   37.6590 H         1 UNK         0.0300 
     42 H42        -8.2935   -7.7589   36.6033 H         1 UNK         0.0300 
     43 H43        -8.6055   -2.4288   34.6997 H         1 UNK         0.0300 
     44 H44        -7.8291   -3.9868   34.9844 H         1 UNK         0.0300 
     45 H45        -7.1011   -2.4992   35.6175 H         1 UNK         0.0300 
@<TRIPOS>BOND
     1    1    2 ar   
     2    1    3 ar   
     3    1   26 1    
     4    2    7 ar   
     5    2   27 1    
     6    3   12 ar   
     7    3   28 1    
     8    4    6 ar   
     9    4    9 ar   
    10    4   29 1    
    11    5    6 ar   
    12    5   10 ar   
    13    5   30 1    
    14    6   13 1    
    15    7    8 ar   
    16    7   14 1    
    17    8   12 ar   
    18    8   20 1    
    19    9   11 ar   
    20    9   22 1    
    21   10   11 ar   
    22   10   23 1    
    23   11   24 1    
    24   12   25 1    
    25   13   20 am   BACKBONE|DICT|INTERRES
    26   13   21 2    
    27   14   15 1    
    28   14   31 1    
    29   14   32 1    
    30   15   16 1    
    31   15   33 1    
    32   15   34 1    
    33   16   20 1    
    34   16   35 1    
    35   16   36 1    
    36   17   22 1    
    37   17   37 1    
    38   17   38 1    
    39   17   39 1    
    40   18   23 1    
    41   18   40 1    
    42   18   41 1    
    43   18   42 1    
    44   19   24 1    
    45   19   43 1    
    46   19   44 1    
    47   19   45 1    
@<TRIPOS>SUBSTRUCTURE
     1 UNK         1 GROUP             0       ****    0 ROOT    
@<TRIPOS>MOLECULE
ZINC71862405_17
47   49    1
SMALL
USER_CHARGES


@<TRIPOS>ATOM
      1 C1         -6.4176   -3.9210   39.0943 C.ar      1 UNK        -0.1150 
      2 C2         -4.2313   -7.7169   36.8506 C.ar      1 UNK        -0.1150 
      3 C3         -4.6051   -7.0971   38.0580 C.ar      1 UNK        -0.1150 
      4 C4         -7.0059   -3.2553   38.0038 C.ar      1 UNK        -0.1150 
      5 C5         -7.5878   -5.9613   38.4759 C.ar      1 UNK        -0.1150 
      6 C6         -4.8783   -9.8721   37.7619 C.ar      1 UNK        -0.1150 
      7 C7         -6.6845   -5.2852   39.3259 C.ar      1 UNK        -0.1150 
      8 C8         -5.2570   -9.2610   38.9758 C.ar      1 UNK        -0.1150 
      9 C9         -4.3753   -9.1094   36.6900 C.ar      1 UNK         0.1500 
     10 C10        -5.1566   -7.8509   39.1260 C.ar      1 UNK        -0.0383 
     11 C11        -7.8836   -3.9416   37.1285 C.ar      1 UNK         0.0850 
     12 C12        -8.1775   -5.3039   37.3678 C.ar      1 UNK         0.0850 
     13 C13        -6.0621   -5.9784   40.5108 C.2       1 UNK         0.6150 
     14 C14        -5.7281  -10.1563   40.1132 C.3       1 UNK        -0.0050 
     15 C15        -6.2522   -9.3855   41.3307 C.3       1 UNK        -0.1200 
     16 C16        -5.4675   -8.0881   41.5635 C.3       1 UNK        -0.0500 
     17 C17        -8.9708   -1.5942   34.4894 C.3       1 UNK        -0.1800 
     18 C18        -9.3040   -7.3076   36.6551 C.3       1 UNK         0.1100 
     19 C19        -8.1998   -1.9932   35.7486 C.3       1 UNK         0.1400 
     20 C20        -3.9759   -9.8036   35.3949 C.3       1 UNK         0.4500 
     21 N21        -5.5549   -7.2374   40.3670 N.am      1 UNK        -0.0317 
     22 O22        -6.0104   -5.3618   41.5766 O.2       1 UNK        -0.5000 
     23 O23        -9.0403   -5.9230   36.4873 O.3       1 UNK        -0.2850 
     24 O24        -8.4867   -3.3534   36.0356 O.3       1 UNK        -0.2850 
     25 F25        -3.6489   -8.9287   34.4430 F         1 UNK        -0.2000 
     26 F26        -2.9296  -10.5962   35.6243 F         1 UNK        -0.2000 
     27 F27        -4.9899  -10.5494   34.9561 F         1 UNK        -0.2000 
     28 H28        -5.7564   -3.3811   39.7581 H         1 UNK         0.1150 
     29 H29        -3.8288   -7.1185   36.0464 H         1 UNK         0.1150 
     30 H30        -4.4606   -6.0297   38.1435 H         1 UNK         0.1150 
     31 H31        -6.7681   -2.2126   37.8625 H         1 UNK         0.1150 
     32 H32        -7.8076   -6.9964   38.6861 H         1 UNK         0.1150 
     33 H33        -4.9583  -10.9432   37.6438 H         1 UNK         0.1150 
     34 H34        -6.4890  -10.8491   39.7513 H         1 UNK         0.0600 
     35 H35        -4.8751  -10.7640   40.4186 H         1 UNK         0.0600 
     36 H36        -7.2985   -9.1260   41.1625 H         1 UNK         0.0600 
     37 H37        -6.2353  -10.0203   42.2173 H         1 UNK         0.0600 
     38 H38        -5.8473   -7.6081   42.4676 H         1 UNK         0.0600 
     39 H39        -4.4172   -8.3081   41.7580 H         1 UNK         0.0600 
     40 H40        -8.6811   -2.2160   33.6421 H         1 UNK         0.0600 
     41 H41       -10.0444   -1.7104   34.6380 H         1 UNK         0.0600 
     42 H42        -8.7778   -0.5546   34.2252 H         1 UNK         0.0600 
     43 H43        -9.9721   -7.6437   35.8623 H         1 UNK         0.0300 
     44 H44        -9.7977   -7.5065   37.6070 H         1 UNK         0.0300 
     45 H45        -8.3896   -7.8991   36.5889 H         1 UNK         0.0300 
     46 H46        -8.5032   -1.3557   36.5806 H         1 UNK         0.0300 
     47 H47        -7.1302   -1.8569   35.5813 H         1 UNK         0.0300 
@<TRIPOS>BOND
     1    1    4 ar   
     2    1    7 ar   
     3    1   28 1    
     4    2    3 ar   
     5    2    9 ar   
     6    2   29 1    
     7    3   10 ar   
     8    3   30 1    
     9    4   11 ar   
    10    4   31 1    
    11    5    7 ar   
    12    5   12 ar   
    13    5   32 1    
    14    6    8 ar   
    15    6    9 ar   
    16    6   33 1    
    17    7   13 1    
    18    8   10 ar   
    19    8   14 1    
    20    9   20 1    
    21   10   21 1    
    22   11   12 ar   
    23   11   24 1    
    24   12   23 1    
    25   13   21 am   BACKBONE|DICT|INTERRES
    26   13   22 2    
    27   14   15 1    
    28   14   34 1    
    29   14   35 1    
    30   15   16 1    
    31   15   36 1    
    32   15   37 1    
    33   16   21 1    
    34   16   38 1    
    35   16   39 1    
    36   17   19 1    
    37   17   40 1    
    38   17   41 1    
    39   17   42 1    
    40   18   23 1    
    41   18   43 1    
    42   18   44 1    
    43   18   45 1    
    44   19   24 1    
    45   19   46 1    
    46   19   47 1    
    47   20   25 1    
    48   20   26 1    
    49   20   27 1    
@<TRIPOS>SUBSTRUCTURE
     1 UNK         1 GROUP             0       ****    0 ROOT    
@<TRIPOS>MOLECULE
ZINC71923301_36
54   56    1
SMALL
USER_CHARGES


@<TRIPOS>ATOM
      1 C1         -8.2222   -6.6334   38.4567 C.ar      1 UNK        -0.1150 
      2 C2         -7.5781   -4.5680   39.5776 C.ar      1 UNK        -0.1150 
      3 C3         -4.9983   -9.6418   37.2201 C.ar      1 UNK        -0.1150 
      4 C4         -4.4065   -7.2931   36.9836 C.ar      1 UNK        -0.1150 
      5 C5         -7.5622   -5.9763   39.5185 C.ar      1 UNK        -0.1150 
      6 C6         -5.5247   -9.3923   38.5045 C.ar      1 UNK        -0.1150 
      7 C7         -5.5351   -8.0674   39.0181 C.ar      1 UNK        -0.0383 
      8 C8         -8.8405   -5.8951   37.4206 C.ar      1 UNK         0.0850 
      9 C9         -8.2000   -3.8076   38.5592 C.ar      1 UNK         0.0850 
     10 C10        -8.8152   -4.4841   37.4805 C.ar      1 UNK         0.0850 
     11 C11        -4.4530   -8.5945   36.4565 C.ar      1 UNK         0.2200 
     12 C12        -4.9276   -7.0298   38.2630 C.ar      1 UNK         0.2200 
     13 C13        -6.9007   -6.7580   40.6234 C.2       1 UNK         0.6150 
     14 C14        -6.0305  -10.5718   39.3273 C.3       1 UNK        -0.0050 
     15 C15        -6.6436  -10.1796   40.6820 C.3       1 UNK        -0.1200 
     16 C16        -5.9904   -8.9223   41.2746 C.3       1 UNK        -0.0500 
     17 C17       -10.6743   -8.4453   37.0713 C.3       1 UNK        -0.1800 
     18 C18        -7.8546   -0.2267   39.3940 C.3       1 UNK        -0.1800 
     19 C19        -9.2953   -2.5083   34.4505 C.3       1 UNK        -0.1800 
     20 C20        -9.5397   -7.8798   36.2068 C.3       1 UNK         0.1400 
     21 C21        -7.6521   -1.7237   39.6323 C.3       1 UNK         0.1400 
     22 C22        -8.5076   -3.2771   35.5120 C.3       1 UNK         0.1400 
     23 N23        -6.1128   -7.8247   40.3074 N.am      1 UNK        -0.0317 
     24 O24        -7.1001   -6.4035   41.7863 O.2       1 UNK        -0.5000 
     25 O25        -9.4643   -6.4648   36.3276 O.3       1 UNK        -0.2850 
     26 O26        -8.2432   -2.4282   38.5513 O.3       1 UNK        -0.2850 
     27 O27        -9.4196   -3.7686   36.4792 O.3       1 UNK        -0.2850 
     28 F28        -3.9507   -8.8470   35.2255 F         1 UNK        -0.2200 
     29 F29        -4.8118   -5.7789   38.7687 F         1 UNK        -0.2200 
     30 H30        -8.2333   -7.7116   38.4519 H         1 UNK         0.1150 
     31 H31        -7.0938   -4.0932   40.4176 H         1 UNK         0.1150 
     32 H32        -4.9949  -10.6435   36.8152 H         1 UNK         0.1150 
     33 H33        -3.9598   -6.4952   36.4102 H         1 UNK         0.1150 
     34 H34        -6.7460  -11.1536   38.7444 H         1 UNK         0.0600 
     35 H35        -5.1752  -11.2252   39.5056 H         1 UNK         0.0600 
     36 H36        -7.7055   -9.9719   40.5401 H         1 UNK         0.0600 
     37 H37        -6.5918  -11.0169   41.3791 H         1 UNK         0.0600 
     38 H38        -6.4417   -8.7008   42.2437 H         1 UNK         0.0600 
     39 H39        -4.9321   -9.0997   41.4703 H         1 UNK         0.0600 
     40 H40       -10.5163   -8.2518   38.1315 H         1 UNK         0.0600 
     41 H41       -11.6275   -7.9943   36.7941 H         1 UNK         0.0600 
     42 H42       -10.7652   -9.5230   36.9383 H         1 UNK         0.0600 
     43 H43        -7.3911    0.0846   38.4578 H         1 UNK         0.0600 
     44 H44        -8.9158    0.0169   39.3391 H         1 UNK         0.0600 
     45 H45        -7.4154    0.3610   40.2001 H         1 UNK         0.0600 
     46 H46       -10.0335   -3.1530   33.9733 H         1 UNK         0.0600 
     47 H47        -9.8233   -1.6652   34.8961 H         1 UNK         0.0600 
     48 H48        -8.6339   -2.1212   33.6758 H         1 UNK         0.0600 
     49 H49        -9.7545   -8.1000   35.1608 H         1 UNK         0.0300 
     50 H50        -8.5837   -8.3620   36.4134 H         1 UNK         0.0300 
     51 H51        -8.1183   -2.0110   40.5761 H         1 UNK         0.0300 
     52 H52        -6.5853   -1.9447   39.6933 H         1 UNK         0.0300 
     53 H53        -7.7672   -2.6219   35.9731 H         1 UNK         0.0300 
     54 H54        -7.9705   -4.1077   35.0505 H         1 UNK         0.0300 
@<TRIPOS>BOND
     1    1    5 ar   
     2    1    8 ar   
     3    1   30 1    
     4    2    5 ar   
     5    2    9 ar   
     6    2   31 1    
     7    3    6 ar   
     8    3   11 ar   
     9    3   32 1    
    10    4   11 ar   
    11    4   12 ar   
    12    4   33 1    
    13    5   13 1    
    14    6    7 ar   
    15    6   14 1    
    16    7   12 ar   
    17    7   23 1    
    18    8   10 ar   
    19    8   25 1    
    20    9   10 ar   
    21    9   26 1    
    22   10   27 1    
    23   11   28 1    
    24   12   29 1    
    25   13   23 am   BACKBONE|DICT|INTERRES
    26   13   24 2    
    27   14   15 1    
    28   14   34 1    
    29   14   35 1    
    30   15   16 1    
    31   15   36 1    
    32   15   37 1    
    33   16   23 1    
    34   16   38 1    
    35   16   39 1    
    36   17   20 1    
    37   17   40 1    
    38   17   41 1    
    39   17   42 1    
    40   18   21 1    
    41   18   43 1    
    42   18   44 1    
    43   18   45 1    
    44   19   22 1    
    45   19   46 1    
    46   19   47 1    
    47   19   48 1    
    48   20   25 1    
    49   20   49 1    
    50   20   50 1    
    51   21   26 1    
    52   21   51 1    
    53   21   52 1    
    54   22   27 1    
    55   22   53 1    
    56   22   54 1    
@<TRIPOS>SUBSTRUCTURE
     1 UNK         1 GROUP             0       ****    0 ROOT    
@<TRIPOS>MOLECULE
ZINC72005434_138
51   53    1
SMALL
USER_CHARGES


@<TRIPOS>ATOM
      1 C1         -4.1444  -10.4641   37.4156 C.ar      1 UNK        -0.1150 
      2 C2         -6.0235   -9.2456   36.4492 C.ar      1 UNK        -0.1150 
      3 C3         -3.7929  -10.9358   36.1352 C.ar      1 UNK        -0.1150 
      4 C4         -5.6712   -9.7179   35.1695 C.ar      1 UNK        -0.1150 
      5 C5         -6.7345   -4.0281   39.3900 C.ar      1 UNK        -0.1150 
      6 C6         -7.7689   -6.1087   38.6781 C.ar      1 UNK        -0.1150 
      7 C7         -6.9242   -5.4134   39.5646 C.ar      1 UNK        -0.1150 
      8 C8         -5.2647   -9.6211   37.5790 C.ar      1 UNK        -0.0418 
      9 C9         -7.3254   -3.3361   38.3011 C.ar      1 UNK         0.0850 
     10 C10        -8.1156   -4.0686   37.3690 C.ar      1 UNK         0.0850 
     11 C11        -4.5564  -10.5633   35.0123 C.ar      1 UNK         0.1800 
     12 C12        -8.3472   -5.4453   37.5847 C.ar      1 UNK         0.1800 
     13 C13        -6.2820   -6.1136   40.7277 C.2       1 UNK         0.6150 
     14 C14        -5.0058   -8.0676   41.5515 C.3       1 UNK        -0.0500 
     15 C15        -5.0545   -7.6785   39.1756 C.3       1 UNK        -0.0500 
     16 C16        -5.5506   -9.4858   41.3058 C.3       1 UNK         0.1400 
     17 C17        -5.6391   -9.0854   38.9505 C.3       1 UNK         0.2118 
     18 C18        -7.7213   -1.6011   33.1673 C.3       1 UNK        -0.1800 
     19 C19        -6.4758   -1.2240   39.1047 C.3       1 UNK         0.1100 
     20 C20        -8.4377   -2.6190   34.0627 C.3       1 UNK        -0.1200 
     21 C21        -8.0032   -2.5270   35.5294 C.3       1 UNK         0.1400 
     22 N22        -5.5048   -7.1961   40.4852 N.am      1 UNK        -0.1400 
     23 O23        -6.4795   -5.6754   41.8590 O.2       1 UNK        -0.5000 
     24 O24        -5.1708   -9.9290   40.0032 O.3       1 UNK        -0.4000 
     25 O25        -7.1770   -1.9750   38.1237 O.3       1 UNK        -0.2850 
     26 O26        -8.7180   -3.5129   36.2596 O.3       1 UNK        -0.2850 
     27 Cl27       -4.1243  -11.1389   33.4453 Cl        1 UNK        -0.1800 
     28 Cl28       -9.3228   -6.3561   36.4882 Cl        1 UNK        -0.1800 
     29 H29        -3.5543  -10.7524   38.2738 H         1 UNK         0.1150 
     30 H30        -6.8794   -8.5947   36.5584 H         1 UNK         0.1150 
     31 H31        -2.9373  -11.5836   36.0128 H         1 UNK         0.1150 
     32 H32        -6.2551   -9.4321   34.3065 H         1 UNK         0.1150 
     33 H33        -6.1229   -3.5154   40.1176 H         1 UNK         0.1150 
     34 H34        -7.9732   -7.1582   38.8239 H         1 UNK         0.1150 
     35 H35        -5.3026   -7.7307   42.5463 H         1 UNK         0.0600 
     36 H36        -3.9151   -8.0714   41.5433 H         1 UNK         0.0600 
     37 H37        -3.9645   -7.7251   39.1646 H         1 UNK         0.0600 
     38 H38        -5.3175   -7.0136   38.3541 H         1 UNK         0.0600 
     39 H39        -5.1496  -10.1783   42.0462 H         1 UNK         0.0300 
     40 H40        -6.6372   -9.5078   41.4055 H         1 UNK         0.0300 
     41 H41        -6.7285   -9.0564   39.0004 H         1 UNK         0.0300 
     42 H42        -7.9178   -0.5800   33.4959 H         1 UNK         0.0600 
     43 H43        -6.6420   -1.7569   33.1801 H         1 UNK         0.0600 
     44 H44        -8.0575   -1.6887   32.1338 H         1 UNK         0.0600 
     45 H45        -6.4925   -0.1701   38.8280 H         1 UNK         0.0300 
     46 H46        -5.4307   -1.5290   39.1701 H         1 UNK         0.0300 
     47 H47        -6.9433   -1.3129   40.0864 H         1 UNK         0.0300 
     48 H48        -8.2456   -3.6270   33.6928 H         1 UNK         0.0600 
     49 H49        -9.5158   -2.4685   33.9957 H         1 UNK         0.0600 
     50 H50        -6.9249   -2.6813   35.6020 H         1 UNK         0.0300 
     51 H51        -8.2339   -1.5360   35.9219 H         1 UNK         0.0300 
@<TRIPOS>BOND
     1    1    3 ar   
     2    1    8 ar   
     3    1   29 1    
     4    2    4 ar   
     5    2    8 ar   
     6    2   30 1    
     7    3   11 ar   
     8    3   31 1    
     9    4   11 ar   
    10    4   32 1    
    11    5    7 ar   
    12    5    9 ar   
    13    5   33 1    
    14    6    7 ar   
    15    6   12 ar   
    16    6   34 1    
    17    7   13 1    
    18    8   17 1    
    19    9   10 ar   
    20    9   25 1    
    21   10   12 ar   
    22   10   26 1    
    23   11   27 1    
    24   12   28 1    
    25   13   22 am   BACKBONE|DICT|INTERRES
    26   13   23 2    
    27   14   16 1    
    28   14   22 1    
    29   14   35 1    
    30   14   36 1    
    31   15   17 1    
    32   15   22 1    
    33   15   37 1    
    34   15   38 1    
    35   16   24 1    
    36   16   39 1    
    37   16   40 1    
    38   17   24 1    
    39   17   41 1    
    40   18   20 1    
    41   18   42 1    
    42   18   43 1    
    43   18   44 1    
    44   19   25 1    
    45   19   45 1    
    46   19   46 1    
    47   19   47 1    
    48   20   21 1    
    49   20   48 1    
    50   20   49 1    
    51   21   26 1    
    52   21   50 1    
    53   21   51 1    
@<TRIPOS>SUBSTRUCTURE
     1 UNK         1 GROUP             0       ****    0 ROOT    
@<TRIPOS>MOLECULE
ZINC72100212_148
40   42    1
SMALL
USER_CHARGES


@<TRIPOS>ATOM
      1 C1        -10.2817   -8.6683   38.2426 C.ar      1 UNK        -0.1150 
      2 C2        -10.9853   -7.8961   37.3036 C.ar      1 UNK        -0.1150 
      3 C3         -6.7499  -11.9142   36.8846 C.ar      1 UNK        -0.0973 
      4 C4         -9.4542   -6.6256   39.2619 C.ar      1 UNK        -0.1150 
      5 C5         -6.1964  -13.8901   35.5772 C.ar      1 UNK        -0.0041 
      6 C6         -8.9731  -14.2474   39.4032 C.ar      1 UNK         0.7498 
      7 C7         -7.5165  -12.7194   37.7533 C.ar      1 UNK        -0.4475 
      8 C8         -9.5038   -8.0369   39.2362 C.ar      1 UNK        -0.1150 
      9 C9         -7.6355  -14.1144   37.5523 C.ar      1 UNK         0.8976 
     10 C10       -10.9381   -6.4886   37.3196 C.ar      1 UNK         0.0850 
     11 C11       -10.1628   -5.8306   38.3222 C.ar      1 UNK         0.0850 
     12 C12        -6.0890  -12.5046   35.7940 C.ar      1 UNK         0.1260 
     13 C13        -6.9621  -14.6914   36.4473 C.ar      1 UNK        -0.0945 
     14 C14        -8.1954  -12.1794   38.8538 C.ar      1 UNK         0.6857 
     15 C15        -8.7325   -8.8096   40.2560 C.2       1 UNK         0.5370 
     16 C16       -11.6247   -4.4907   36.1101 C.3       1 UNK         0.1100 
     17 C17        -9.3681   -3.8047   39.3802 C.3       1 UNK         0.1100 
     18 C18        -8.8347  -10.3321   40.2366 C.3       1 UNK         0.1880 
     19 N19        -8.3733  -14.8577   38.3952 N.ar      1 UNK        -0.8760 
     20 N20        -8.9276  -12.9500   39.6752 N.ar      1 UNK        -0.7893 
     21 O21        -8.0246   -8.2750   41.1097 O.2       1 UNK        -0.4700 
     22 O22       -11.6873   -5.8918   36.3230 O.3       1 UNK        -0.2850 
     23 O23       -10.1229   -4.4507   38.3645 O.3       1 UNK        -0.2850 
     24 O24        -8.1303  -10.8274   39.1024 O.3       1 UNK        -0.3000 
     25 Cl25       -5.1503  -11.5313   34.7269 Cl        1 UNK        -0.1800 
     26 Cl26       -7.0579  -16.3902   36.1318 Cl        1 UNK        -0.1800 
     27 H27       -10.3532   -9.7435   38.1744 H         1 UNK         0.1150 
     28 H28       -11.5758   -8.3903   36.5459 H         1 UNK         0.1150 
     29 H29        -6.6645  -10.8489   37.0483 H         1 UNK         0.1471 
     30 H30        -8.8539   -6.1651   40.0317 H         1 UNK         0.1150 
     31 H31        -5.6888  -14.3436   34.7394 H         1 UNK         0.1384 
     32 H32        -9.5606  -14.8647   40.0670 H         1 UNK         0.0241 
     33 H33       -12.2031   -4.2420   35.2204 H         1 UNK         0.0300 
     34 H34       -10.6019   -4.1541   35.9362 H         1 UNK         0.0300 
     35 H35       -12.0627   -3.9399   36.9430 H         1 UNK         0.0300 
     36 H36        -9.4666   -2.7252   39.2664 H         1 UNK         0.0300 
     37 H37        -8.3071   -4.0468   39.3054 H         1 UNK         0.0300 
     38 H38        -9.7326   -4.0630   40.3754 H         1 UNK         0.0300 
     39 H39        -9.8851  -10.6239   40.2102 H         1 UNK         0.0300 
     40 H40        -8.3999  -10.7377   41.1509 H         1 UNK         0.0300 
@<TRIPOS>BOND
     1    1    2 ar   
     2    1    8 ar   
     3    1   27 1    
     4    2   10 ar   
     5    2   28 1    
     6    3    7 ar   
     7    3   12 ar   
     8    3   29 1    
     9    4    8 ar   
    10    4   11 ar   
    11    4   30 1    
    12    5   12 ar   
    13    5   13 ar   
    14    5   31 1    
    15    6   19 ar   
    16    6   20 ar   
    17    6   32 1    
    18    7    9 ar   
    19    7   14 ar   
    20    8   15 1    
    21    9   13 ar   
    22    9   19 ar   
    23   10   11 ar   
    24   10   22 1    
    25   11   23 1    
    26   12   25 1    
    27   13   26 1    
    28   14   20 ar   
    29   14   24 1    
    30   15   18 1    
    31   15   21 2    
    32   16   22 1    
    33   16   33 1    
    34   16   34 1    
    35   16   35 1    
    36   17   23 1    
    37   17   36 1    
    38   17   37 1    
    39   17   38 1    
    40   18   24 1    
    41   18   39 1    
    42   18   40 1    
@<TRIPOS>SUBSTRUCTURE
     1 UNK         1 GROUP             0       ****    0 ROOT    
@<TRIPOS>MOLECULE
ZINC72151136_105
37   39    1
SMALL
USER_CHARGES


@<TRIPOS>ATOM
      1 C1        -34.6226  -40.5015   39.9644 C.2       1 UNK        -0.0738 
      2 C2        -35.3358  -39.4983   39.2433 C.2       1 UNK        -0.0738 
      3 C3        -33.3067  -40.5900   39.5902 C.2       1 UNK        -0.3255 
      4 C4        -35.1569  -36.0318   35.6938 C.2       1 UNK        -0.3376 
      5 C5        -34.5576  -38.8386   38.3267 C.2       1 UNK        -0.0637 
      6 C6        -36.2607  -36.1284   36.5059 C.2       1 UNK         0.1693 
      7 C7        -34.9484  -37.7566   37.4303 C.2       1 UNK         0.3009 
      8 C8        -37.5017  -35.3128   36.2948 C.2       1 UNK         0.6150 
      9 C9        -39.4498  -32.7311   37.5558 C.3       1 UNK        -0.1200 
     10 C10       -39.5002  -34.2462   37.2694 C.3       1 UNK        -0.0500 
     11 C11       -37.6486  -34.8311   38.7689 C.3       1 UNK        -0.0500 
     12 C12       -38.3135  -32.3473   38.5316 C.3       1 UNK        -0.0600 
     13 C13       -37.9809  -33.5064   39.5023 C.3       1 UNK         0.2050 
     14 C14       -38.5339  -30.9810   39.2178 C.3       1 UNK         0.1450 
     15 N15       -36.1357  -37.1457   37.4641 N.2       1 UNK        -0.4803 
     16 N16       -38.1667  -34.8536   37.3855 N.am      1 UNK        -0.1400 
     17 O17       -37.8709  -35.0544   35.1475 O.2       1 UNK        -0.5000 
     18 O18       -39.0655  -33.7232   40.3775 O.3       1 UNK        -0.6830 
     19 O19       -39.6640  -31.0066   40.0741 O.3       1 UNK        -0.6830 
     20 S20       -32.9162  -39.4381   38.3404 S.3       1 UNK         0.0328 
     21 S21       -33.9011  -37.1503   36.1484 S.3       1 UNK         0.0010 
     22 H22       -35.0953  -41.1115   40.7212 H         1 UNK         0.1211 
     23 H23       -36.3827  -39.2909   39.4127 H         1 UNK         0.1211 
     24 H24       -32.5441  -41.2558   39.9684 H         1 UNK         0.2618 
     25 H25       -35.0275  -35.3708   34.8499 H         1 UNK         0.2317 
     26 H26       -40.4179  -32.4271   37.9558 H         1 UNK         0.0600 
     27 H27       -39.3218  -32.1803   36.6234 H         1 UNK         0.0600 
     28 H28       -39.9762  -34.4360   36.3057 H         1 UNK         0.0600 
     29 H29       -40.1450  -34.7313   38.0045 H         1 UNK         0.0600 
     30 H30       -38.0080  -35.7026   39.3184 H         1 UNK         0.0600 
     31 H31       -36.5612  -34.9064   38.7642 H         1 UNK         0.0600 
     32 H32       -37.4198  -32.2233   37.9166 H         1 UNK         0.0600 
     33 H33       -37.1318  -33.2204   40.1254 H         1 UNK         0.0600 
     34 H34       -38.6752  -30.2045   38.4641 H         1 UNK         0.0600 
     35 H35       -37.6528  -30.7030   39.7982 H         1 UNK         0.0600 
     36 H36       -39.4893  -32.8712   40.4867 H         1 UNK         0.4180 
     37 H37       -39.8311  -30.1285   40.3903 H         1 UNK         0.4180 
@<TRIPOS>BOND
     1    1    2 1    
     2    1    3 2    
     3    1   22 1    
     4    2    5 2    
     5    2   23 1    
     6    3   20 1    
     7    3   24 1    
     8    4    6 2    
     9    4   21 1    
    10    4   25 1    
    11    5    7 1    
    12    5   20 1    
    13    6    8 1    
    14    6   15 1    
    15    7   15 2    
    16    7   21 1    
    17    8   16 am   BACKBONE|DICT|INTERRES
    18    8   17 2    
    19    9   10 1    
    20    9   12 1    
    21    9   26 1    
    22    9   27 1    
    23   10   16 1    
    24   10   28 1    
    25   10   29 1    
    26   11   13 1    
    27   11   16 1    
    28   11   30 1    
    29   11   31 1    
    30   12   13 1    
    31   12   14 1    
    32   12   32 1    
    33   13   18 1    
    34   13   33 1    
    35   14   19 1    
    36   14   34 1    
    37   14   35 1    
    38   18   36 1    
    39   19   37 1    
@<TRIPOS>SUBSTRUCTURE
     1 UNK         1 GROUP             0       ****    0 ROOT    
@<TRIPOS>MOLECULE
ZINC72231979_269
48   50    1
SMALL
USER_CHARGES


@<TRIPOS>ATOM
      1 C1         -6.8344   -5.4210   39.0206 C.ar      1 UNK        -0.1150 
      2 C2         -7.0309   -4.5709   37.9194 C.ar      1 UNK        -0.1150 
      3 C3         -8.6801   -6.8027   38.2542 C.ar      1 UNK        -0.1150 
      4 C4         -7.6463   -6.5573   39.1832 C.ar      1 UNK        -0.1150 
      5 C5         -8.0417   -4.8185   36.9689 C.ar      1 UNK         0.0850 
      6 C6         -8.8860   -5.9598   37.1303 C.ar      1 UNK         0.0850 
      7 C7         -5.1589  -10.7179   37.7049 C.2       1 UNK         0.5497 
      8 C8         -4.1147  -11.1834   35.9699 C.2       1 UNK         0.5486 
      9 C9         -7.4508   -7.4498   40.3770 C.2       1 UNK         0.6150 
     10 C10        -5.9193  -10.3307   41.4944 C.3       1 UNK        -0.1200 
     11 C11        -5.4207  -10.9983   40.2004 C.3       1 UNK        -0.1200 
     12 C12        -7.3267   -9.7398   41.2965 C.3       1 UNK        -0.0500 
     13 C13        -6.9736   -9.4353   38.8992 C.3       1 UNK        -0.0500 
     14 C14        -5.5633  -10.0571   38.9870 C.3       1 UNK         0.0550 
     15 C15        -3.1734  -11.2639   34.8220 C.3       1 UNK        -0.0650 
     16 C16       -11.6290   -7.4449   35.1397 C.3       1 UNK        -0.1800 
     17 C17        -9.1551   -3.8994   35.0091 C.3       1 UNK         0.1100 
     18 C18       -10.6709   -7.3893   36.3303 C.3       1 UNK         0.1400 
     19 N19        -4.0691  -10.3296   36.9886 N.2       1 UNK        -0.7040 
     20 N20        -5.8487  -11.7355   37.2019 N.2       1 UNK        -0.4268 
     21 N21        -7.3138   -8.7857   40.1776 N.am      1 UNK        -0.1400 
     22 O22        -7.4338   -6.9395   41.4962 O.2       1 UNK        -0.5000 
     23 O23        -5.1511  -12.0521   36.0279 O.3       1 UNK        -0.1975 
     24 O24        -8.0922   -3.8876   35.9482 O.3       1 UNK        -0.2850 
     25 O25        -9.8703   -6.2235   36.1982 O.3       1 UNK        -0.2850 
     26 H26        -6.0596   -5.2000   39.7418 H         1 UNK         0.1150 
     27 H27        -6.3979   -3.7038   37.8000 H         1 UNK         0.1150 
     28 H28        -9.3069   -7.6630   38.4286 H         1 UNK         0.1150 
     29 H29        -5.9271  -11.0551   42.3096 H         1 UNK         0.0600 
     30 H30        -5.2298   -9.5390   41.7925 H         1 UNK         0.0600 
     31 H31        -4.3825  -11.3141   40.3105 H         1 UNK         0.0600 
     32 H32        -6.0000  -11.9055   40.0221 H         1 UNK         0.0600 
     33 H33        -8.0416  -10.5346   41.0795 H         1 UNK         0.0600 
     34 H34        -7.6697   -9.2832   42.2272 H         1 UNK         0.0600 
     35 H35        -6.9841   -8.7577   38.0470 H         1 UNK         0.0600 
     36 H36        -7.7155  -10.2048   38.6819 H         1 UNK         0.0600 
     37 H37        -4.8655   -9.2328   39.1443 H         1 UNK         0.0600 
     38 H38        -2.8809  -12.2999   34.6533 H         1 UNK         0.0600 
     39 H39        -3.6541  -10.8802   33.9231 H         1 UNK         0.0600 
     40 H40        -2.2805  -10.6733   35.0258 H         1 UNK         0.0600 
     41 H41       -12.2710   -6.5641   35.1148 H         1 UNK         0.0600 
     42 H42       -11.0791   -7.4853   34.1992 H         1 UNK         0.0600 
     43 H43       -12.2687   -8.3260   35.1929 H         1 UNK         0.0600 
     44 H44        -9.0697   -3.0232   34.3670 H         1 UNK         0.0300 
     45 H45       -10.1283   -3.8481   35.4992 H         1 UNK         0.0300 
     46 H46        -9.1086   -4.7772   34.3640 H         1 UNK         0.0300 
     47 H47       -10.0470   -8.2845   36.3385 H         1 UNK         0.0300 
     48 H48       -11.2432   -7.3566   37.2587 H         1 UNK         0.0300 
@<TRIPOS>BOND
     1    1    2 ar   
     2    1    4 ar   
     3    1   26 1    
     4    2    5 ar   
     5    2   27 1    
     6    3    4 ar   
     7    3    6 ar   
     8    3   28 1    
     9    4    9 1    
    10    5    6 ar   
    11    5   24 1    
    12    6   25 1    
    13    7   14 1    
    14    7   19 1    
    15    7   20 2    
    16    8   15 1    
    17    8   19 2    
    18    8   23 1    
    19    9   21 am   BACKBONE|DICT|INTERRES
    20    9   22 2    
    21   10   11 1    
    22   10   12 1    
    23   10   29 1    
    24   10   30 1    
    25   11   14 1    
    26   11   31 1    
    27   11   32 1    
    28   12   21 1    
    29   12   33 1    
    30   12   34 1    
    31   13   14 1    
    32   13   21 1    
    33   13   35 1    
    34   13   36 1    
    35   14   37 1    
    36   15   38 1    
    37   15   39 1    
    38   15   40 1    
    39   16   18 1    
    40   16   41 1    
    41   16   42 1    
    42   16   43 1    
    43   17   24 1    
    44   17   44 1    
    45   17   45 1    
    46   17   46 1    
    47   18   25 1    
    48   18   47 1    
    49   18   48 1    
    50   20   23 1    
@<TRIPOS>SUBSTRUCTURE
     1 UNK         1 GROUP             0       ****    0 ROOT    
@<TRIPOS>MOLECULE
ZINC72282827_94
44   46    1
SMALL
USER_CHARGES


@<TRIPOS>ATOM
      1 C1         -7.0133  -12.5565   36.3841 C.ar      1 UNK        -0.3200 
      2 C2        -11.4360   -9.5294   38.7469 C.ar      1 UNK        -0.1150 
      3 C3         -9.5537   -8.1078   39.3324 C.ar      1 UNK        -0.1150 
      4 C4         -7.1684  -13.5060   35.3338 C.ar      1 UNK         0.2660 
      5 C5        -10.2860   -9.2915   39.5292 C.ar      1 UNK        -0.1150 
      6 C6        -11.8342   -8.6252   37.7283 C.ar      1 UNK         0.0850 
      7 C7        -11.0508   -7.4540   37.5035 C.ar      1 UNK         0.0850 
      8 C8         -9.9302   -7.2014   38.3281 C.ar      1 UNK         0.1800 
      9 C9         -7.7583  -13.0610   37.4127 C.ar      1 UNK         0.0560 
     10 C10        -9.8822  -10.2376   40.6228 C.2       1 UNK         0.6150 
     11 C11        -7.9589  -12.9904   41.2966 C.3       1 UNK        -0.1200 
     12 C12        -7.6030  -13.5180   39.8953 C.3       1 UNK        -0.1200 
     13 C13        -9.4325  -12.5511   41.3591 C.3       1 UNK        -0.0500 
     14 C14        -9.4927  -12.0974   38.9662 C.3       1 UNK        -0.0500 
     15 C15        -8.0210  -12.5285   38.7863 C.3       1 UNK         0.0550 
     16 C16       -13.7661   -9.9843   37.2085 C.3       1 UNK         0.1100 
     17 C17       -11.9455   -6.8890   35.3307 C.3       1 UNK         0.1100 
     18 N18        -7.9483  -14.5177   35.6794 N.2       1 UNK        -0.5310 
     19 N19        -8.3024  -14.2381   36.9474 N.pl3     1 UNK        -0.1490 
     20 N20        -9.6863  -11.5459   40.3177 N.am      1 UNK        -0.1400 
     21 O21        -9.7477   -9.7918   41.7606 O.2       1 UNK        -0.5000 
     22 O22       -12.9691   -8.8332   36.9693 O.3       1 UNK        -0.2850 
     23 O23       -11.3194   -6.4975   36.5433 O.3       1 UNK        -0.2850 
     24 Cl24       -8.9819   -5.7746   38.1036 Cl        1 UNK        -0.1800 
     25 H25        -6.4396  -11.6416   36.3745 H         1 UNK         0.1500 
     26 H26       -12.0056  -10.4216   38.9567 H         1 UNK         0.1150 
     27 H27        -8.6950   -7.8917   39.9525 H         1 UNK         0.1150 
     28 H28        -6.7435  -13.4892   34.3401 H         1 UNK         0.0720 
     29 H29        -7.7627  -13.7572   42.0472 H         1 UNK         0.0600 
     30 H30        -7.3159  -12.1449   41.5473 H         1 UNK         0.0600 
     31 H31        -6.5327  -13.7207   39.8327 H         1 UNK         0.0600 
     32 H32        -8.1037  -14.4749   39.7450 H         1 UNK         0.0600 
     33 H33       -10.0899  -13.4071   41.2018 H         1 UNK         0.0600 
     34 H34        -9.6672  -12.1822   42.3597 H         1 UNK         0.0600 
     35 H35        -9.7359  -11.3949   38.1709 H         1 UNK         0.0600 
     36 H36       -10.1633  -12.9461   38.8268 H         1 UNK         0.0600 
     37 H37        -7.4069  -11.6341   38.9080 H         1 UNK         0.0600 
     38 H38       -14.6136   -9.9804   36.5231 H         1 UNK         0.0300 
     39 H39       -14.1658   -9.9906   38.2234 H         1 UNK         0.0300 
     40 H40       -13.2054  -10.9029   37.0310 H         1 UNK         0.0300 
     41 H41       -11.7094   -6.1579   34.5575 H         1 UNK         0.0300 
     42 H42       -13.0305   -6.9079   35.4353 H         1 UNK         0.0300 
     43 H43       -11.5947   -7.8609   34.9800 H         1 UNK         0.0300 
     44 H44        -8.9002  -14.8586   37.4771 H         1 UNK         0.3410 
@<TRIPOS>BOND
     1    1    4 ar   
     2    1    9 ar   
     3    1   25 1    
     4    2    5 ar   
     5    2    6 ar   
     6    2   26 1    
     7    3    5 ar   
     8    3    8 ar   
     9    3   27 1    
    10    4   18 ar   
    11    4   28 1    
    12    5   10 1    
    13    6    7 ar   
    14    6   22 1    
    15    7    8 ar   
    16    7   23 1    
    17    8   24 1    
    18    9   15 1    
    19    9   19 ar   
    20   10   20 am   BACKBONE|DICT|INTERRES
    21   10   21 2    
    22   11   12 1    
    23   11   13 1    
    24   11   29 1    
    25   11   30 1    
    26   12   15 1    
    27   12   31 1    
    28   12   32 1    
    29   13   20 1    
    30   13   33 1    
    31   13   34 1    
    32   14   15 1    
    33   14   20 1    
    34   14   35 1    
    35   14   36 1    
    36   15   37 1    
    37   16   22 1    
    38   16   38 1    
    39   16   39 1    
    40   16   40 1    
    41   17   23 1    
    42   17   41 1    
    43   17   42 1    
    44   17   43 1    
    45   18   19 ar   
    46   19   44 1    
@<TRIPOS>SUBSTRUCTURE
     1 UNK         1 GROUP             0       ****    0 ROOT    
@<TRIPOS>MOLECULE
ZINC72282827_102
44   46    1
SMALL
USER_CHARGES


@<TRIPOS>ATOM
      1 C1        -17.2754  -27.4241   38.5281 C.ar      1 UNK        -0.3200 
      2 C2        -22.5188  -21.1239   37.7828 C.ar      1 UNK        -0.1150 
      3 C3        -20.2505  -20.3752   37.3260 C.ar      1 UNK        -0.1150 
      4 C4        -16.5162  -28.2506   37.7494 C.ar      1 UNK         0.0360 
      5 C5        -21.1666  -21.4287   37.5264 C.ar      1 UNK        -0.1150 
      6 C6        -22.9642  -19.7903   37.8738 C.ar      1 UNK         0.0850 
      7 C7        -22.0207  -18.7344   37.7311 C.ar      1 UNK         0.0850 
      8 C8        -20.6713  -19.0387   37.4377 C.ar      1 UNK         0.1800 
      9 C9        -17.0751  -26.1264   37.9696 C.ar      1 UNK         0.2230 
     10 C10       -20.7375  -22.8621   37.3899 C.2       1 UNK         0.6150 
     11 C11       -18.6649  -23.5184   40.3720 C.3       1 UNK        -0.1200 
     12 C12       -17.6937  -24.6225   39.9180 C.3       1 UNK        -0.1200 
     13 C13       -19.0711  -22.5613   39.2369 C.3       1 UNK        -0.0500 
     14 C14       -19.0695  -24.6019   37.7664 C.3       1 UNK        -0.0500 
     15 C15       -17.6756  -24.8077   38.3885 C.3       1 UNK         0.0550 
     16 C16       -24.9543  -18.4891   37.5524 C.3       1 UNK         0.1100 
     17 C17       -22.2683  -16.9628   39.2196 C.3       1 UNK         0.1100 
     18 N18       -16.2670  -26.1579   36.9203 N.2       1 UNK        -0.5310 
     19 N19       -15.9267  -27.4544   36.7968 N.pl3     1 UNK        -0.1490 
     20 N20       -19.6605  -23.2905   38.0951 N.am      1 UNK        -0.1400 
     21 O21       -21.3698  -23.5954   36.6311 O.2       1 UNK        -0.5000 
     22 O22       -24.3085  -19.6187   38.1237 O.3       1 UNK        -0.2850 
     23 O23       -22.3846  -17.4209   37.8818 O.3       1 UNK        -0.2850 
     24 Cl24      -19.5099  -17.7780   37.2234 Cl        1 UNK        -0.1800 
     25 H25       -17.8890  -27.7053   39.3706 H         1 UNK         0.1500 
     26 H26       -23.2333  -21.9274   37.8973 H         1 UNK         0.1150 
     27 H27       -19.2183  -20.5867   37.0872 H         1 UNK         0.1150 
     28 H28       -16.3543  -29.3183   37.7904 H         1 UNK         0.1350 
     29 H29       -19.5688  -23.9847   40.7678 H         1 UNK         0.0600 
     30 H30       -18.2310  -22.9599   41.2023 H         1 UNK         0.0600 
     31 H31       -17.9882  -25.5482   40.4122 H         1 UNK         0.0600 
     32 H32       -16.6804  -24.4107   40.2615 H         1 UNK         0.0600 
     33 H33       -19.7697  -21.8366   39.6572 H         1 UNK         0.0600 
     34 H34       -18.2053  -21.9950   38.8908 H         1 UNK         0.0600 
     35 H35       -18.9849  -24.7049   36.6821 H         1 UNK         0.0600 
     36 H36       -19.7465  -25.3901   38.0991 H         1 UNK         0.0600 
     37 H37       -17.0399  -24.0158   37.9870 H         1 UNK         0.0600 
     38 H38       -24.5549  -18.2362   36.5689 H         1 UNK         0.0300 
     39 H39       -24.8816  -17.6198   38.2052 H         1 UNK         0.0300 
     40 H40       -26.0138  -18.7107   37.4264 H         1 UNK         0.0300 
     41 H41       -22.9010  -17.5429   39.8933 H         1 UNK         0.0300 
     42 H42       -22.5833  -15.9209   39.2769 H         1 UNK         0.0300 
     43 H43       -21.2381  -17.0213   39.5735 H         1 UNK         0.0300 
     44 H44       -15.3070  -27.7747   36.0636 H         1 UNK         0.3410 
@<TRIPOS>BOND
     1    1    4 ar   
     2    1    9 ar   
     3    1   25 1    
     4    2    5 ar   
     5    2    6 ar   
     6    2   26 1    
     7    3    5 ar   
     8    3    8 ar   
     9    3   27 1    
    10    4   19 ar   
    11    4   28 1    
    12    5   10 1    
    13    6    7 ar   
    14    6   22 1    
    15    7    8 ar   
    16    7   23 1    
    17    8   24 1    
    18    9   15 1    
    19    9   18 ar   
    20   10   20 am   BACKBONE|DICT|INTERRES
    21   10   21 2    
    22   11   12 1    
    23   11   13 1    
    24   11   29 1    
    25   11   30 1    
    26   12   15 1    
    27   12   31 1    
    28   12   32 1    
    29   13   20 1    
    30   13   33 1    
    31   13   34 1    
    32   14   15 1    
    33   14   20 1    
    34   14   35 1    
    35   14   36 1    
    36   15   37 1    
    37   16   22 1    
    38   16   38 1    
    39   16   39 1    
    40   16   40 1    
    41   17   23 1    
    42   17   41 1    
    43   17   42 1    
    44   17   43 1    
    45   18   19 ar   
    46   19   44 1    
@<TRIPOS>SUBSTRUCTURE
     1 UNK         1 GROUP             0       ****    0 ROOT    
@<TRIPOS>MOLECULE
ZINC72296707_5
37   40    1
SMALL
USER_CHARGES


@<TRIPOS>ATOM
      1 C1        -12.1251  -21.2591   36.2486 C.ar      1 UNK        -0.1150 
      2 C2        -12.6356  -22.5136   36.6304 C.ar      1 UNK        -0.1150 
      3 C3        -14.7616  -11.1953   39.7677 C.ar      1 UNK        -0.4470 
      4 C4        -12.4731  -20.1062   36.9792 C.ar      1 UNK        -0.1150 
      5 C5        -14.5953  -12.5908   39.8055 C.ar      1 UNK         0.2270 
      6 C6        -13.4950  -22.6103   37.7411 C.ar      1 UNK        -0.1150 
      7 C7        -14.2393  -17.5572   40.4040 C.ar      1 UNK        -0.3200 
      8 C8        -15.7727  -10.6594   38.9553 C.ar      1 UNK         0.4730 
      9 C9        -14.0327  -18.8843   40.1530 C.ar      1 UNK         0.0360 
     10 C10       -13.3316  -20.1923   38.1011 C.ar      1 UNK         0.0731 
     11 C11       -15.4434  -13.4208   39.0304 C.ar      1 UNK        -0.2070 
     12 C12       -13.8450  -21.4598   38.4750 C.ar      1 UNK         0.2200 
     13 C13       -13.9598  -16.9258   39.1581 C.ar      1 UNK         0.2230 
     14 C14       -16.4385  -12.7552   38.2787 C.ar      1 UNK         0.6375 
     15 C15       -14.0547  -15.4280   39.0121 C.2       1 UNK         0.6150 
     16 C16       -16.4556  -15.7378   38.6965 C.3       1 UNK        -0.0500 
     17 C17       -17.8078  -15.0330   38.5375 C.3       1 UNK         0.0475 
     18 N18       -16.6097  -11.4226   38.2324 N.ar      1 UNK        -0.6780 
     19 N19       -13.6080  -17.8000   38.2264 N.2       1 UNK        -0.5310 
     20 N20       -13.6625  -19.0145   38.8259 N.pl3     1 UNK         0.1189 
     21 N21       -15.2958  -14.8607   39.0038 N.am      1 UNK        -0.1550 
     22 O22       -13.0089  -14.7844   38.9154 O.2       1 UNK        -0.5000 
     23 F23       -14.6865  -21.5957   39.5286 F         1 UNK        -0.2200 
     24 S24       -17.6594  -13.6509   37.4019 S.3       1 UNK        -0.3200 
     25 H25       -11.4670  -21.1772   35.3952 H         1 UNK         0.1150 
     26 H26       -12.3716  -23.3994   36.0707 H         1 UNK         0.1150 
     27 H27       -14.1188  -10.5461   40.3435 H         1 UNK         0.1550 
     28 H28       -12.0735  -19.1483   36.6777 H         1 UNK         0.1150 
     29 H29       -13.8210  -13.0036   40.4350 H         1 UNK         0.0650 
     30 H30       -13.8942  -23.5701   38.0336 H         1 UNK         0.1150 
     31 H31       -14.5311  -17.1002   41.3374 H         1 UNK         0.1500 
     32 H32       -15.9244   -9.5916   38.8991 H         1 UNK         0.0120 
     33 H33       -14.1104  -19.7351   40.8139 H         1 UNK         0.1350 
     34 H34       -16.5721  -16.4913   39.4763 H         1 UNK         0.0600 
     35 H35       -16.2491  -16.2806   37.7706 H         1 UNK         0.0600 
     36 H36       -18.5634  -15.7262   38.1677 H         1 UNK         0.0600 
     37 H37       -18.1583  -14.6572   39.4997 H         1 UNK         0.0600 
@<TRIPOS>BOND
     1    1    2 ar   
     2    1    4 ar   
     3    1   25 1    
     4    2    6 ar   
     5    2   26 1    
     6    3    5 ar   
     7    3    8 ar   
     8    3   27 1    
     9    4   10 ar   
    10    4   28 1    
    11    5   11 ar   
    12    5   29 1    
    13    6   12 ar   
    14    6   30 1    
    15    7    9 ar   
    16    7   13 ar   
    17    7   31 1    
    18    8   18 ar   
    19    8   32 1    
    20    9   20 ar   
    21    9   33 1    
    22   10   12 ar   
    23   10   20 1    
    24   11   14 ar   
    25   11   21 1    
    26   12   23 1    
    27   13   15 1    
    28   13   19 ar   
    29   14   18 ar   
    30   14   24 1    
    31   15   21 am   BACKBONE|DICT|INTERRES
    32   15   22 2    
    33   16   17 1    
    34   16   21 1    
    35   16   34 1    
    36   16   35 1    
    37   17   24 1    
    38   17   36 1    
    39   17   37 1    
    40   19   20 ar   
@<TRIPOS>SUBSTRUCTURE
     1 UNK         1 GROUP             0       ****    0 ROOT    
@<TRIPOS>MOLECULE
ZINC72298681_106
49   52    1
SMALL
USER_CHARGES


@<TRIPOS>ATOM
      1 C1         -4.6389  -11.9136   35.9141 C.2       1 UNK        -0.3376 
      2 C2         -4.0933  -10.6931   35.6069 C.2       1 UNK         0.1693 
      3 C3         -4.8818  -10.2382   37.6946 C.2       1 UNK         0.1859 
      4 C4         -7.5463   -3.6638   38.3851 C.2       1 UNK         0.5000 
      5 C5         -7.1449   -6.7362   39.9516 C.2       1 UNK         0.5000 
      6 C6         -6.4008   -4.5669   38.7951 C.3       1 UNK        -0.1200 
      7 C7         -5.3120   -9.2359   41.4419 C.3       1 UNK        -0.1200 
      8 C8         -4.8575  -10.0783   40.2311 C.3       1 UNK        -0.1200 
      9 C9        -10.8491   -2.3712   35.4709 C.3       1 UNK        -0.1200 
     10 C10        -9.4448   -1.8624   35.6953 C.3       1 UNK        -0.1200 
     11 C11        -6.7793   -8.7837   41.2971 C.3       1 UNK        -0.0500 
     12 C12        -6.6929   -8.9666   38.8803 C.3       1 UNK        -0.0500 
     13 C13        -8.3144   -5.8026   37.8826 C.3       1 UNK        -0.0500 
     14 C14        -5.2160   -9.4007   38.8883 C.3       1 UNK         0.0550 
     15 C15        -6.9650   -5.9938   38.6096 C.3       1 UNK        -0.0600 
     16 C16        -9.7794   -3.3072   35.9829 C.3       1 UNK        -0.0600 
     17 C17        -3.3951  -10.3055   34.3430 C.3       1 UNK        -0.0650 
     18 C18        -9.8314   -3.8298   37.4058 C.3       1 UNK        -0.0500 
     19 N19        -4.2522   -9.7494   36.6234 N.2       1 UNK        -0.4803 
     20 N20        -8.5702   -4.3725   37.8990 N.am      1 UNK        -0.1400 
     21 N21        -6.9236   -8.0718   40.0207 N.am      1 UNK        -0.1400 
     22 O22        -7.4977   -2.4404   38.4872 O.2       1 UNK        -0.5000 
     23 O23        -7.4633   -6.0816   40.9432 O.2       1 UNK        -0.5000 
     24 S24        -5.3710  -11.9191   37.4953 S.3       1 UNK         0.0010 
     25 H25        -4.6601  -12.8072   35.3085 H         1 UNK         0.2317 
     26 H26        -5.5539   -4.3868   38.1335 H         1 UNK         0.0600 
     27 H27        -6.0821   -4.3330   39.8116 H         1 UNK         0.0600 
     28 H28        -5.1831   -9.8042   42.3639 H         1 UNK         0.0600 
     29 H29        -4.6728   -8.3563   41.5343 H         1 UNK         0.0600 
     30 H30        -3.7844  -10.2668   40.2833 H         1 UNK         0.0600 
     31 H31        -5.3428  -11.0532   40.2892 H         1 UNK         0.0600 
     32 H32       -11.6166   -2.0428   36.1692 H         1 UNK         0.0600 
     33 H33       -11.1789   -2.4972   34.4415 H         1 UNK         0.0600 
     34 H34        -8.8341   -1.6549   34.8189 H         1 UNK         0.0600 
     35 H35        -9.2720   -1.2058   36.5467 H         1 UNK         0.0600 
     36 H36        -7.4497   -9.6442   41.3161 H         1 UNK         0.0600 
     37 H37        -7.0614   -8.1705   42.1551 H         1 UNK         0.0600 
     38 H38        -6.9662   -8.5281   37.9214 H         1 UNK         0.0600 
     39 H39        -7.3359   -9.8429   38.9751 H         1 UNK         0.0600 
     40 H40        -8.2548   -6.1511   36.8509 H         1 UNK         0.0600 
     41 H41        -9.1339   -6.3368   38.3676 H         1 UNK         0.0600 
     42 H42        -4.6069   -8.4979   38.8116 H         1 UNK         0.0600 
     43 H43        -6.2591   -6.5252   37.9733 H         1 UNK         0.0600 
     44 H44        -9.4106   -4.0359   35.2631 H         1 UNK         0.0600 
     45 H45        -4.0723   -9.7829   33.6674 H         1 UNK         0.0600 
     46 H46        -2.5537   -9.6418   34.5444 H         1 UNK         0.0600 
     47 H47        -3.0069  -11.1774   33.8169 H         1 UNK         0.0600 
     48 H48       -10.6012   -4.6000   37.4615 H         1 UNK         0.0600 
     49 H49       -10.1590   -3.0292   38.0721 H         1 UNK         0.0600 
@<TRIPOS>BOND
     1    1    2 2    
     2    1   24 1    
     3    1   25 1    
     4    2   17 1    
     5    2   19 1    
     6    3   14 1    
     7    3   19 2    
     8    3   24 1    
     9    4    6 1    
    10    4   20 am   BACKBONE|DICT|INTERRES
    11    4   22 2    
    12    5   15 1    
    13    5   21 am   BACKBONE|DICT|INTERRES
    14    5   23 2    
    15    6   15 1    
    16    6   26 1    
    17    6   27 1    
    18    7    8 1    
    19    7   11 1    
    20    7   28 1    
    21    7   29 1    
    22    8   14 1    
    23    8   30 1    
    24    8   31 1    
    25    9   10 1    
    26    9   16 1    
    27    9   32 1    
    28    9   33 1    
    29   10   16 1    
    30   10   34 1    
    31   10   35 1    
    32   11   21 1    
    33   11   36 1    
    34   11   37 1    
    35   12   14 1    
    36   12   21 1    
    37   12   38 1    
    38   12   39 1    
    39   13   15 1    
    40   13   20 1    
    41   13   40 1    
    42   13   41 1    
    43   14   42 1    
    44   15   43 1    
    45   16   18 1    
    46   16   44 1    
    47   17   45 1    
    48   17   46 1    
    49   17   47 1    
    50   18   20 1    
    51   18   48 1    
    52   18   49 1    
@<TRIPOS>SUBSTRUCTURE
     1 UNK         1 GROUP             0       ****    0 ROOT    
@<TRIPOS>MOLECULE
ZINC72298749_184
45   47    1
SMALL
USER_CHARGES


@<TRIPOS>ATOM
      1 C1        -16.9488  -14.4512   37.7172 C.ar      1 UNK        -0.1150 
      2 C2        -17.8256  -13.4187   38.1040 C.ar      1 UNK        -0.1150 
      3 C3        -15.0491  -13.0934   38.4186 C.ar      1 UNK        -0.1150 
      4 C4        -11.1223  -21.4476   37.1684 C.2       1 UNK        -0.3376 
      5 C5        -15.5538  -14.3002   37.8879 C.ar      1 UNK        -0.1150 
      6 C6        -15.9253  -12.0610   38.8196 C.ar      1 UNK        -0.0418 
      7 C7        -17.3168  -12.2271   38.6542 C.ar      1 UNK         0.2200 
      8 C8        -10.1895  -20.4955   37.4928 C.2       1 UNK         0.1693 
      9 C9        -12.0902  -19.3445   37.9925 C.2       1 UNK         0.1859 
     10 C10       -14.6002  -15.3744   37.4442 C.2       1 UNK         0.6150 
     11 C11       -14.5349  -17.3735   40.2761 C.3       1 UNK        -0.1200 
     12 C12       -13.5975  -18.5099   39.8299 C.3       1 UNK        -0.1200 
     13 C13       -15.5150  -16.9833   39.1536 C.3       1 UNK        -0.0500 
     14 C14       -13.9769  -17.7630   37.4283 C.3       1 UNK        -0.0500 
     15 C15       -12.9313  -18.2031   38.4732 C.3       1 UNK         0.0550 
     16 C16        -8.7027  -20.6100   37.3885 C.3       1 UNK        -0.0650 
     17 C17       -13.5343   -9.6853   40.3971 C.3       1 UNK         0.1100 
     18 C18       -15.3808  -10.7644   39.3933 C.3       1 UNK         0.1818 
     19 N19       -10.7556  -19.3109   37.9671 N.2       1 UNK        -0.4803 
     20 N20       -14.7515  -16.6259   37.9465 N.am      1 UNK        -0.1400 
     21 O21       -13.7292  -15.0844   36.6257 O.2       1 UNK        -0.5000 
     22 O22       -14.0529  -10.8994   39.8818 O.3       1 UNK        -0.4000 
     23 F23       -18.1726  -11.2417   39.0167 F         1 UNK        -0.2200 
     24 S24       -12.7477  -20.8855   37.4466 S.3       1 UNK         0.0010 
     25 H25       -17.3478  -15.3569   37.2829 H         1 UNK         0.1150 
     26 H26       -18.8916  -13.5326   37.9742 H         1 UNK         0.1150 
     27 H27       -13.9805  -12.9622   38.5204 H         1 UNK         0.1150 
     28 H28       -10.9553  -22.4423   36.7841 H         1 UNK         0.2317 
     29 H29       -15.0850  -17.6733   41.1690 H         1 UNK         0.0600 
     30 H30       -13.9414  -16.5026   40.5599 H         1 UNK         0.0600 
     31 H31       -12.8346  -18.6906   40.5884 H         1 UNK         0.0600 
     32 H32       -14.1741  -19.4321   39.7494 H         1 UNK         0.0600 
     33 H33       -16.1809  -17.8162   38.9245 H         1 UNK         0.0600 
     34 H34       -16.1549  -16.1826   39.5208 H         1 UNK         0.0600 
     35 H35       -13.4776  -17.5281   36.4861 H         1 UNK         0.0600 
     36 H36       -14.6604  -18.5818   37.2027 H         1 UNK         0.0600 
     37 H37       -12.2545  -17.3595   38.6244 H         1 UNK         0.0600 
     38 H38        -8.3125  -19.9389   36.6232 H         1 UNK         0.0600 
     39 H39        -8.2225  -20.3491   38.3317 H         1 UNK         0.0600 
     40 H40        -8.3949  -21.6229   37.1301 H         1 UNK         0.0600 
     41 H41       -14.1352   -9.3201   41.2313 H         1 UNK         0.0300 
     42 H42       -13.4978   -8.9130   39.6274 H         1 UNK         0.0300 
     43 H43       -12.5187   -9.8458   40.7592 H         1 UNK         0.0300 
     44 H44       -15.4176  -10.0035   38.6122 H         1 UNK         0.0300 
     45 H45       -16.0336  -10.4335   40.2029 H         1 UNK         0.0300 
@<TRIPOS>BOND
     1    1    2 ar   
     2    1    5 ar   
     3    1   25 1    
     4    2    7 ar   
     5    2   26 1    
     6    3    5 ar   
     7    3    6 ar   
     8    3   27 1    
     9    4    8 2    
    10    4   24 1    
    11    4   28 1    
    12    5   10 1    
    13    6    7 ar   
    14    6   18 1    
    15    7   23 1    
    16    8   16 1    
    17    8   19 1    
    18    9   15 1    
    19    9   19 2    
    20    9   24 1    
    21   10   20 am   BACKBONE|DICT|INTERRES
    22   10   21 2    
    23   11   12 1    
    24   11   13 1    
    25   11   29 1    
    26   11   30 1    
    27   12   15 1    
    28   12   31 1    
    29   12   32 1    
    30   13   20 1    
    31   13   33 1    
    32   13   34 1    
    33   14   15 1    
    34   14   20 1    
    35   14   35 1    
    36   14   36 1    
    37   15   37 1    
    38   16   38 1    
    39   16   39 1    
    40   16   40 1    
    41   17   22 1    
    42   17   41 1    
    43   17   42 1    
    44   17   43 1    
    45   18   22 1    
    46   18   44 1    
    47   18   45 1    
@<TRIPOS>SUBSTRUCTURE
     1 UNK         1 GROUP             0       ****    0 ROOT    
@<TRIPOS>MOLECULE
ZINC72389625_28
58   61    1
SMALL
USER_CHARGES


@<TRIPOS>ATOM
      1 C1         -5.5654  -13.8602   34.1829 C.ar      1 UNK        -0.4470 
      2 C2         -4.9165  -12.6500   34.4994 C.ar      1 UNK         0.2270 
      3 C3         -3.3355   -8.4152   36.7868 C.ar      1 UNK        -0.6890 
      4 C4         -8.3505   -5.9505   38.7944 C.ar      1 UNK        -0.1150 
      5 C5         -6.7085   -4.2398   39.3597 C.ar      1 UNK        -0.1150 
      6 C6         -6.4628  -14.4038   35.1158 C.ar      1 UNK         0.4730 
      7 C7         -3.0904   -9.0443   35.5627 C.ar      1 UNK         0.6530 
      8 C8         -6.1022  -12.6605   36.5950 C.ar      1 UNK         0.4730 
      9 C9         -5.1814  -12.0195   35.7354 C.ar      1 UNK        -0.2920 
     10 C10        -7.2660   -5.5141   39.5853 C.ar      1 UNK        -0.1150 
     11 C11        -8.8444   -5.1443   37.7415 C.ar      1 UNK         0.0850 
     12 C12        -7.1916   -3.4126   38.3176 C.ar      1 UNK         0.0850 
     13 C13        -8.2515   -3.8836   37.5064 C.ar      1 UNK         0.0850 
     14 C14        -4.2310   -9.0630   37.6424 C.ar      1 UNK         0.5490 
     15 C15        -4.5253  -10.7472   36.1091 C.ar      1 UNK         0.8420 
     16 C16        -6.7485   -6.3572   40.7156 C.2       1 UNK         0.6150 
     17 C17        -4.5406   -8.8666   41.5302 C.3       1 UNK        -0.1200 
     18 C18        -4.0975   -9.4020   40.1566 C.3       1 UNK        -0.1200 
     19 C19        -6.0527   -8.5790   41.5422 C.3       1 UNK        -0.0500 
     20 C20        -6.0983   -8.2058   39.1318 C.3       1 UNK        -0.0500 
     21 C21        -4.5869   -8.4954   39.0084 C.3       1 UNK         0.0550 
     22 C22       -10.4927   -6.7828   37.1182 C.3       1 UNK         0.1100 
     23 C23        -5.6854   -1.6298   38.9015 C.3       1 UNK         0.1100 
     24 C24        -7.9279   -3.0880   35.3357 C.3       1 UNK         0.1100 
     25 N25        -6.7311  -13.8217   36.2986 N.ar      1 UNK        -0.6780 
     26 N26        -3.6850  -10.2010   35.2331 N.ar      1 UNK        -0.8390 
     27 N27        -4.8164  -10.2205   37.2961 N.ar      1 UNK        -0.8390 
     28 N28        -6.3881   -7.6406   40.4613 N.am      1 UNK        -0.1400 
     29 O29        -6.6694   -5.8529   41.8347 O.2       1 UNK        -0.5000 
     30 O30        -9.8786   -5.5204   36.9091 O.3       1 UNK        -0.2850 
     31 O31        -6.6876   -2.1571   38.0454 O.3       1 UNK        -0.2850 
     32 O32        -8.7467   -3.1033   36.4928 O.3       1 UNK        -0.2850 
     33 H33        -5.3787  -14.3605   33.2441 H         1 UNK         0.1550 
     34 H34        -4.2235  -12.2179   33.7924 H         1 UNK         0.0650 
     35 H35        -2.8532   -7.4847   37.0453 H         1 UNK         0.1970 
     36 H36        -8.7868   -6.9136   39.0108 H         1 UNK         0.1150 
     37 H37        -5.9071   -3.9177   40.0077 H         1 UNK         0.1150 
     38 H38        -6.9789  -15.3292   34.9065 H         1 UNK         0.0120 
     39 H39        -2.4116   -8.6162   34.8401 H         1 UNK         0.0110 
     40 H40        -6.3581  -12.2407   37.5566 H         1 UNK         0.0120 
     41 H41        -4.2893   -9.5865   42.3102 H         1 UNK         0.0600 
     42 H42        -3.9936   -7.9525   41.7667 H         1 UNK         0.0600 
     43 H43        -3.0126   -9.5042   40.1190 H         1 UNK         0.0600 
     44 H44        -4.5036  -10.4055   40.0199 H         1 UNK         0.0600 
     45 H45        -6.6128   -9.5042   41.3979 H         1 UNK         0.0600 
     46 H46        -6.3517   -8.2053   42.5236 H         1 UNK         0.0600 
     47 H47        -6.3823   -7.5571   38.3054 H         1 UNK         0.0600 
     48 H48        -6.6723   -9.1242   39.0009 H         1 UNK         0.0600 
     49 H49        -4.0657   -7.5417   39.1029 H         1 UNK         0.0600 
     50 H50       -11.2810   -6.9245   36.3791 H         1 UNK         0.0300 
     51 H51       -10.9524   -6.8439   38.1055 H         1 UNK         0.0300 
     52 H52        -9.7785   -7.5984   36.9979 H         1 UNK         0.0300 
     53 H53        -5.4278   -0.6226   38.5742 H         1 UNK         0.0300 
     54 H54        -4.7753   -2.2300   38.8667 H         1 UNK         0.0300 
     55 H55        -6.0362   -1.5609   39.9321 H         1 UNK         0.0300 
     56 H56        -8.4070   -2.4906   34.5604 H         1 UNK         0.0300 
     57 H57        -7.7888   -4.0961   34.9428 H         1 UNK         0.0300 
     58 H58        -6.9485   -2.6524   35.5342 H         1 UNK         0.0300 
@<TRIPOS>BOND
     1    1    2 ar   
     2    1    6 ar   
     3    1   33 1    
     4    2    9 ar   
     5    2   34 1    
     6    3    7 ar   
     7    3   14 ar   
     8    3   35 1    
     9    4   10 ar   
    10    4   11 ar   
    11    4   36 1    
    12    5   10 ar   
    13    5   12 ar   
    14    5   37 1    
    15    6   25 ar   
    16    6   38 1    
    17    7   26 ar   
    18    7   39 1    
    19    8    9 ar   
    20    8   25 ar   
    21    8   40 1    
    22    9   15 1    
    23   10   16 1    
    24   11   13 ar   
    25   11   30 1    
    26   12   13 ar   
    27   12   31 1    
    28   13   32 1    
    29   14   21 1    
    30   14   27 ar   
    31   15   26 ar   
    32   15   27 ar   
    33   16   28 am   BACKBONE|DICT|INTERRES
    34   16   29 2    
    35   17   18 1    
    36   17   19 1    
    37   17   41 1    
    38   17   42 1    
    39   18   21 1    
    40   18   43 1    
    41   18   44 1    
    42   19   28 1    
    43   19   45 1    
    44   19   46 1    
    45   20   21 1    
    46   20   28 1    
    47   20   47 1    
    48   20   48 1    
    49   21   49 1    
    50   22   30 1    
    51   22   50 1    
    52   22   51 1    
    53   22   52 1    
    54   23   31 1    
    55   23   53 1    
    56   23   54 1    
    57   23   55 1    
    58   24   32 1    
    59   24   56 1    
    60   24   57 1    
    61   24   58 1    
@<TRIPOS>SUBSTRUCTURE
     1 UNK         1 GROUP             0       ****    0 ROOT    
@<TRIPOS>MOLECULE
ZINC72394206_67
56   58    1
SMALL
USER_CHARGES


@<TRIPOS>ATOM
      1 C1         -6.3069  -12.8397   34.9367 C.ar      1 UNK        -0.4470 
      2 C2         -5.8490  -11.5406   35.2256 C.ar      1 UNK         0.2270 
      3 C3        -10.8675   -8.6667   38.8863 C.ar      1 UNK        -0.1150 
      4 C4         -8.9780   -7.1692   39.2110 C.ar      1 UNK        -0.1150 
      5 C5         -7.0054  -13.5401   35.9316 C.ar      1 UNK         0.4730 
      6 C6         -9.6713   -8.3432   39.5552 C.ar      1 UNK        -0.1150 
      7 C7        -11.3487   -7.8463   37.8396 C.ar      1 UNK         0.0850 
      8 C8         -9.4333   -6.3319   38.1630 C.ar      1 UNK         0.0850 
      9 C9        -10.6227   -6.6909   37.4653 C.ar      1 UNK         0.0850 
     10 C10        -6.0975  -10.9905   36.4988 C.ar      1 UNK        -0.2845 
     11 C11        -6.7931  -11.7846   37.4487 C.ar      1 UNK         0.3700 
     12 C12        -9.1544   -9.2166   40.6597 C.2       1 UNK         0.6150 
     13 C13        -7.0411  -11.8097   41.3629 C.3       1 UNK        -0.1200 
     14 C14        -6.6336  -12.2908   39.9566 C.3       1 UNK        -0.1200 
     15 C15        -8.5476  -11.4902   41.4219 C.3       1 UNK        -0.0500 
     16 C16        -8.6447  -11.0506   39.0261 C.3       1 UNK        -0.0500 
     17 C17        -7.1350  -11.3194   38.8646 C.3       1 UNK         0.0550 
     18 C18       -13.2399   -9.2876   37.4566 C.3       1 UNK         0.1100 
     19 C19        -7.4911   -4.9196   38.3673 C.3       1 UNK         0.1100 
     20 C20       -10.2622   -5.3616   35.4981 C.3       1 UNK         0.1100 
     21 C21        -4.0443   -9.5242   37.8862 C.3       1 UNK        -0.4765 
     22 N22        -7.2425  -13.0292   37.1548 N.ar      1 UNK        -0.6780 
     23 N23        -8.8882  -10.5161   40.3757 N.am      1 UNK        -0.1400 
     24 O24        -9.0051   -8.7334   41.7811 O.2       1 UNK        -0.5000 
     25 O25        -5.0083   -8.7642   35.5447 O.2       1 UNK        -0.5300 
     26 O26        -6.5181   -8.5771   37.5727 O.2       1 UNK        -0.5300 
     27 O27       -12.5018   -8.1200   37.1315 O.3       1 UNK        -0.2850 
     28 O28        -8.7771   -5.1669   37.8179 O.3       1 UNK        -0.2850 
     29 O29       -11.1572   -5.9576   36.4253 O.3       1 UNK        -0.2850 
     30 S30        -5.5029   -9.3175   36.8121 S.o2      1 UNK         0.9929 
     31 H31        -6.1373  -13.2852   33.9675 H         1 UNK         0.1550 
     32 H32        -5.3205  -10.9770   34.4709 H         1 UNK         0.0650 
     33 H33       -11.3970   -9.5559   39.1914 H         1 UNK         0.1150 
     34 H34        -8.0829   -6.9384   39.7680 H         1 UNK         0.1150 
     35 H35        -7.3799  -14.5357   35.7437 H         1 UNK         0.0120 
     36 H36        -6.7892  -12.5675   42.1059 H         1 UNK         0.0600 
     37 H37        -6.4716  -10.9176   41.6283 H         1 UNK         0.0600 
     38 H38        -5.5513  -12.4064   39.8938 H         1 UNK         0.0600 
     39 H39        -7.0579  -13.2820   39.7891 H         1 UNK         0.0600 
     40 H40        -9.1318  -12.3984   41.2672 H         1 UNK         0.0600 
     41 H41        -8.8158  -11.1329   42.4183 H         1 UNK         0.0600 
     42 H42        -8.9606  -10.3809   38.2273 H         1 UNK         0.0600 
     43 H43        -9.2142  -11.9702   38.8859 H         1 UNK         0.0600 
     44 H44        -6.6212  -10.3882   39.0726 H         1 UNK         0.0600 
     45 H45       -14.1071   -9.3565   36.7999 H         1 UNK         0.0300 
     46 H46       -13.6056   -9.2554   38.4838 H         1 UNK         0.0300 
     47 H47       -12.6439  -10.1893   37.3102 H         1 UNK         0.0300 
     48 H48        -7.0720   -4.0247   37.9080 H         1 UNK         0.0300 
     49 H49        -6.8046   -5.7438   38.1671 H         1 UNK         0.0300 
     50 H50        -7.5441   -4.7427   39.4422 H         1 UNK         0.0300 
     51 H51       -10.7583   -5.2712   34.5321 H         1 UNK         0.0300 
     52 H52        -9.3605   -5.9584   35.3491 H         1 UNK         0.0300 
     53 H53        -9.9827   -4.3564   35.8143 H         1 UNK         0.0300 
     54 H54        -3.6342   -8.5362   38.0870 H         1 UNK         0.1787 
     55 H55        -4.3324   -9.9986   38.8200 H         1 UNK         0.1787 
     56 H56        -3.3041  -10.1259   37.3635 H         1 UNK         0.1787 
@<TRIPOS>BOND
     1    1    2 ar   
     2    1    5 ar   
     3    1   31 1    
     4    2   10 ar   
     5    2   32 1    
     6    3    6 ar   
     7    3    7 ar   
     8    3   33 1    
     9    4    6 ar   
    10    4    8 ar   
    11    4   34 1    
    12    5   22 ar   
    13    5   35 1    
    14    6   12 1    
    15    7    9 ar   
    16    7   27 1    
    17    8    9 ar   
    18    8   28 1    
    19    9   29 1    
    20   10   11 ar   
    21   10   30 1    
    22   11   17 1    
    23   11   22 ar   
    24   12   23 am   BACKBONE|DICT|INTERRES
    25   12   24 2    
    26   13   14 1    
    27   13   15 1    
    28   13   36 1    
    29   13   37 1    
    30   14   17 1    
    31   14   38 1    
    32   14   39 1    
    33   15   23 1    
    34   15   40 1    
    35   15   41 1    
    36   16   17 1    
    37   16   23 1    
    38   16   42 1    
    39   16   43 1    
    40   17   44 1    
    41   18   27 1    
    42   18   45 1    
    43   18   46 1    
    44   18   47 1    
    45   19   28 1    
    46   19   48 1    
    47   19   49 1    
    48   19   50 1    
    49   20   29 1    
    50   20   51 1    
    51   20   52 1    
    52   20   53 1    
    53   21   30 1    
    54   21   54 1    
    55   21   55 1    
    56   21   56 1    
    57   25   30 2    
    58   26   30 2    
@<TRIPOS>SUBSTRUCTURE
     1 UNK         1 GROUP             0       ****    0 ROOT    
@<TRIPOS>MOLECULE
ZINC72400570_106
48   50    1
SMALL
USER_CHARGES


@<TRIPOS>ATOM
      1 C1        -12.1469  -19.9852   36.2494 C.ar      1 UNK        -0.3541 
      2 C2        -11.8390  -21.1045   35.4529 C.ar      1 UNK        -0.0888 
      3 C3        -11.1529  -20.8869   39.6490 C.ar      1 UNK        -0.2567 
      4 C4        -10.9982  -22.2762   37.4246 C.ar      1 UNK        -0.2243 
      5 C5        -16.5781  -14.2415   38.1044 C.ar      1 UNK        -0.1150 
      6 C6        -14.9379  -13.0225   39.4171 C.ar      1 UNK        -0.1150 
      7 C7        -11.6340  -19.6197   39.8452 C.ar      1 UNK        -0.1072 
      8 C8        -11.2955  -21.1675   38.2509 C.ar      1 UNK         0.1233 
      9 C9        -15.4382  -14.2467   38.9353 C.ar      1 UNK        -0.1150 
     10 C10       -11.8757  -20.0211   37.6308 C.ar      1 UNK         0.2860 
     11 C11       -17.1970  -13.0364   37.7222 C.ar      1 UNK         0.0850 
     12 C12       -15.5373  -11.8018   39.0573 C.ar      1 UNK         0.0850 
     13 C13       -16.6489  -11.7999   38.1691 C.ar      1 UNK         0.0850 
     14 C14       -11.2660  -22.2472   36.0420 C.ar      1 UNK         0.1267 
     15 C15       -14.7866  -15.5315   39.3488 C.2       1 UNK         0.6150 
     16 C16       -19.3007  -12.1740   36.9265 C.3       1 UNK         0.1100 
     17 C17       -15.8519   -9.6486   40.0372 C.3       1 UNK         0.1100 
     18 C18       -16.3961  -10.0742   36.6328 C.3       1 UNK         0.1100 
     19 C19       -12.6489  -17.7676   38.4802 C.3       1 UNK         0.0025 
     20 C20       -14.1813  -17.8134   38.6051 C.3       1 UNK         0.0800 
     21 N21       -12.0719  -19.0880   38.6385 N.pl3     1 UNK        -0.2434 
     22 N22       -14.7773  -16.4963   38.4212 N.am      1 UNK        -0.5000 
     23 O23       -14.2444  -15.6498   40.4449 O.2       1 UNK        -0.5000 
     24 O24       -18.2920  -13.1739   36.8946 O.3       1 UNK        -0.2850 
     25 O25       -14.9667  -10.6637   39.5820 O.3       1 UNK        -0.2850 
     26 O26       -17.1521  -10.6108   37.7077 O.3       1 UNK        -0.2850 
     27 Br27      -10.8525  -23.7594   34.9666 Br        1 UNK        -0.2000 
     28 H28       -12.5841  -19.1067   35.8020 H         1 UNK         0.1796 
     29 H29       -12.0391  -21.0935   34.3909 H         1 UNK         0.1359 
     30 H30       -10.7447  -21.5533   40.3949 H         1 UNK         0.1377 
     31 H31       -10.5589  -23.1610   37.8582 H         1 UNK         0.1699 
     32 H32       -17.0058  -15.1704   37.7572 H         1 UNK         0.1150 
     33 H33       -14.0832  -13.0170   40.0791 H         1 UNK         0.1150 
     34 H34       -11.7020  -19.0461   40.7606 H         1 UNK         0.1929 
     35 H35       -20.2355  -12.5996   36.5623 H         1 UNK         0.0300 
     36 H36       -19.0507  -11.3388   36.2724 H         1 UNK         0.0300 
     37 H37       -19.4822  -11.8037   37.9367 H         1 UNK         0.0300 
     38 H38       -16.7906  -10.0553   40.4174 H         1 UNK         0.0300 
     39 H39       -16.0693   -8.9289   39.2485 H         1 UNK         0.0300 
     40 H40       -15.3779   -9.1018   40.8521 H         1 UNK         0.0300 
     41 H41       -16.8254   -9.1212   36.3241 H         1 UNK         0.0300 
     42 H42       -16.4121  -10.7447   35.7721 H         1 UNK         0.0300 
     43 H43       -15.3573   -9.8978   36.9162 H         1 UNK         0.0300 
     44 H44       -12.3490  -17.3665   37.5113 H         1 UNK         0.0600 
     45 H45       -12.2183  -17.1088   39.2363 H         1 UNK         0.0600 
     46 H46       -14.5986  -18.4888   37.8575 H         1 UNK         0.0600 
     47 H47       -14.4687  -18.2140   39.5797 H         1 UNK         0.0600 
     48 H48       -15.2115  -16.2884   37.5359 H         1 UNK         0.3000 
@<TRIPOS>BOND
     1    1    2 ar   
     2    1   10 ar   
     3    1   28 1    
     4    2   14 ar   
     5    2   29 1    
     6    3    7 ar   
     7    3    8 ar   
     8    3   30 1    
     9    4    8 ar   
    10    4   14 ar   
    11    4   31 1    
    12    5    9 ar   
    13    5   11 ar   
    14    5   32 1    
    15    6    9 ar   
    16    6   12 ar   
    17    6   33 1    
    18    7   21 ar   
    19    7   34 1    
    20    8   10 ar   
    21    9   15 1    
    22   10   21 ar   
    23   11   13 ar   
    24   11   24 1    
    25   12   13 ar   
    26   12   25 1    
    27   13   26 1    
    28   14   27 1    
    29   15   22 am   BACKBONE|DICT|INTERRES
    30   15   23 2    
    31   16   24 1    
    32   16   35 1    
    33   16   36 1    
    34   16   37 1    
    35   17   25 1    
    36   17   38 1    
    37   17   39 1    
    38   17   40 1    
    39   18   26 1    
    40   18   41 1    
    41   18   42 1    
    42   18   43 1    
    43   19   20 1    
    44   19   21 1    
    45   19   44 1    
    46   19   45 1    
    47   20   22 1    
    48   20   46 1    
    49   20   47 1    
    50   22   48 1    
@<TRIPOS>SUBSTRUCTURE
     1 UNK         1 GROUP             0       ****    0 ROOT    
@<TRIPOS>MOLECULE
ZINC72402048_108
48   50    1
SMALL
USER_CHARGES


@<TRIPOS>ATOM
      1 C1        -11.1870  -22.1571   37.4803 C.ar      1 UNK        -0.2243 
      2 C2        -11.3873  -22.0545   36.0879 C.ar      1 UNK        -0.2222 
      3 C3        -11.3909  -20.8583   39.7539 C.ar      1 UNK        -0.2567 
      4 C4        -16.4363  -13.9051   38.1440 C.ar      1 UNK        -0.1150 
      5 C5        -14.8223  -12.8316   39.6056 C.ar      1 UNK        -0.1150 
      6 C6        -12.1744  -19.7666   36.3578 C.ar      1 UNK        -0.3541 
      7 C7        -11.8246  -19.5796   39.9849 C.ar      1 UNK        -0.1072 
      8 C8        -11.4761  -21.0719   38.3403 C.ar      1 UNK         0.1233 
      9 C9        -15.3563  -14.0046   39.0441 C.ar      1 UNK        -0.1150 
     10 C10       -11.9734  -19.8741   37.7460 C.ar      1 UNK         0.2860 
     11 C11       -16.9541  -12.6414   37.7671 C.ar      1 UNK         0.0850 
     12 C12       -15.3187  -11.5614   39.2616 C.ar      1 UNK         0.0850 
     13 C13       -16.3687  -11.4589   38.3020 C.ar      1 UNK         0.0850 
     14 C14       -11.8799  -20.8614   35.5281 C.ar      1 UNK         0.2471 
     15 C15       -14.8055  -15.3384   39.4492 C.2       1 UNK         0.6150 
     16 C16       -18.6861  -13.6726   36.4352 C.3       1 UNK         0.1100 
     17 C17       -15.3645   -9.2673   40.0290 C.3       1 UNK         0.1100 
     18 C18       -16.8993   -9.9636   36.5218 C.3       1 UNK         0.1100 
     19 C19       -12.6840  -17.6237   38.6561 C.3       1 UNK         0.0025 
     20 C20       -14.2219  -17.6044   38.6436 C.3       1 UNK         0.0800 
     21 N21       -12.1774  -18.9761   38.7844 N.pl3     1 UNK        -0.2434 
     22 N22       -14.7416  -16.2533   38.4744 N.am      1 UNK        -0.5000 
     23 O23       -14.3863  -15.5400   40.5861 O.2       1 UNK        -0.5000 
     24 O24       -18.0268  -12.5069   36.9072 O.3       1 UNK        -0.2850 
     25 O25       -14.6864  -10.5064   39.8894 O.3       1 UNK        -0.2850 
     26 O26       -16.8175  -10.2137   37.9187 O.3       1 UNK        -0.2850 
     27 Br27      -12.1497  -20.7273   33.6512 Br        1 UNK        -0.2000 
     28 H28       -10.8079  -23.0770   37.8992 H         1 UNK         0.1699 
     29 H29       -11.1623  -22.8915   35.4423 H         1 UNK         0.1489 
     30 H30       -11.0500  -21.5745   40.4870 H         1 UNK         0.1377 
     31 H31       -16.8683  -14.8162   37.7619 H         1 UNK         0.1150 
     32 H32       -14.0150  -12.9035   40.3213 H         1 UNK         0.1150 
     33 H33       -12.5482  -18.8531   35.9251 H         1 UNK         0.1796 
     34 H34       -11.9118  -19.0442   40.9215 H         1 UNK         0.1929 
     35 H35       -19.5246  -13.3781   35.8043 H         1 UNK         0.0300 
     36 H36       -19.0873  -14.2664   37.2575 H         1 UNK         0.0300 
     37 H37       -18.0212  -14.2897   35.8298 H         1 UNK         0.0300 
     38 H38       -16.4083   -9.4015   40.3171 H         1 UNK         0.0300 
     39 H39       -15.3088   -8.6804   39.1120 H         1 UNK         0.0300 
     40 H40       -14.8823   -8.6847   40.8137 H         1 UNK         0.0300 
     41 H41       -16.6570   -8.9184   36.3313 H         1 UNK         0.0300 
     42 H42       -17.9106  -10.1348   36.1535 H         1 UNK         0.0300 
     43 H43       -16.2022  -10.5734   35.9449 H         1 UNK         0.0300 
     44 H44       -12.2815  -17.1848   37.7423 H         1 UNK         0.0600 
     45 H45       -12.2968  -17.0274   39.4844 H         1 UNK         0.0600 
     46 H46       -14.5992  -18.2235   37.8290 H         1 UNK         0.0600 
     47 H47       -14.6123  -18.0371   39.5673 H         1 UNK         0.0600 
     48 H48       -15.0579  -15.9756   37.5594 H         1 UNK         0.3000 
@<TRIPOS>BOND
     1    1    2 ar   
     2    1    8 ar   
     3    1   28 1    
     4    2   14 ar   
     5    2   29 1    
     6    3    7 ar   
     7    3    8 ar   
     8    3   30 1    
     9    4    9 ar   
    10    4   11 ar   
    11    4   31 1    
    12    5    9 ar   
    13    5   12 ar   
    14    5   32 1    
    15    6   10 ar   
    16    6   14 ar   
    17    6   33 1    
    18    7   21 ar   
    19    7   34 1    
    20    8   10 ar   
    21    9   15 1    
    22   10   21 ar   
    23   11   13 ar   
    24   11   24 1    
    25   12   13 ar   
    26   12   25 1    
    27   13   26 1    
    28   14   27 1    
    29   15   22 am   BACKBONE|DICT|INTERRES
    30   15   23 2    
    31   16   24 1    
    32   16   35 1    
    33   16   36 1    
    34   16   37 1    
    35   17   25 1    
    36   17   38 1    
    37   17   39 1    
    38   17   40 1    
    39   18   26 1    
    40   18   41 1    
    41   18   42 1    
    42   18   43 1    
    43   19   20 1    
    44   19   21 1    
    45   19   44 1    
    46   19   45 1    
    47   20   22 1    
    48   20   46 1    
    49   20   47 1    
    50   22   48 1    
@<TRIPOS>SUBSTRUCTURE
     1 UNK         1 GROUP             0       ****    0 ROOT    
@<TRIPOS>MOLECULE
ZINC72748434_148
45   47    1
SMALL
USER_CHARGES


@<TRIPOS>ATOM
      1 C1        -10.3658  -22.2364   36.4498 C.ar      1 UNK         0.0055 
      2 C2         -9.5122  -22.0922   37.5604 C.ar      1 UNK        -0.3011 
      3 C3        -11.4436  -21.3469   36.2684 C.ar      1 UNK        -0.4461 
      4 C4         -9.7359  -21.0580   38.4892 C.ar      1 UNK        -0.1407 
      5 C5        -14.8940  -11.9207   39.3615 C.ar      1 UNK        -0.1150 
      6 C6        -16.4157  -13.2997   38.0516 C.ar      1 UNK        -0.1150 
      7 C7        -15.1866  -13.1440   38.7280 C.ar      1 UNK        -0.1150 
      8 C8        -17.0259  -11.0048   38.6135 C.ar      1 UNK        -0.1150 
      9 C9        -11.6942  -20.3027   37.1834 C.ar      1 UNK         0.6314 
     10 C10       -15.8029  -10.8378   39.3049 C.ar      1 UNK         0.0850 
     11 C11       -17.3425  -12.2315   37.9820 C.ar      1 UNK         0.0850 
     12 C12       -10.8157  -20.1761   38.2987 C.ar      1 UNK        -0.1027 
     13 C13       -12.6508  -18.5347   38.1621 C.2       1 UNK         0.2008 
     14 C14       -14.2034  -14.2719   38.8156 C.2       1 UNK         0.6150 
     15 C15       -18.0084   -9.8451   38.5466 C.3       1 UNK        -0.0650 
     16 C16       -14.3470   -9.4318   40.6069 C.3       1 UNK         0.1100 
     17 C17       -18.9127  -13.5502   36.7161 C.3       1 UNK         0.1100 
     18 C18       -13.6074  -17.4031   38.3367 C.3       1 UNK        -0.0050 
     19 C19       -13.1623  -16.1450   37.5723 C.3       1 UNK         0.0800 
     20 N20       -12.7189  -19.3636   37.1124 N.2       1 UNK        -0.5991 
     21 N21       -14.1061  -15.0409   37.7247 N.am      1 UNK        -0.5000 
     22 O22       -13.4956  -14.4267   39.8079 O.2       1 UNK        -0.5000 
     23 O23       -15.5595   -9.6116   39.8895 O.3       1 UNK        -0.2850 
     24 O24       -18.5519  -12.3182   37.3224 O.3       1 UNK        -0.2850 
     25 S25       -11.3161  -18.8102   39.2898 S.3       1 UNK        -0.0839 
     26 H26       -10.1947  -23.0302   35.7359 H         1 UNK         0.1296 
     27 H27        -8.6848  -22.7762   37.6980 H         1 UNK         0.1749 
     28 H28       -12.0992  -21.4546   35.4184 H         1 UNK         0.2114 
     29 H29        -9.0879  -20.9352   39.3446 H         1 UNK         0.2050 
     30 H30       -13.9529  -11.8380   39.8849 H         1 UNK         0.1150 
     31 H31       -16.6384  -14.2526   37.5985 H         1 UNK         0.1150 
     32 H32       -17.7645   -9.2013   37.7022 H         1 UNK         0.0600 
     33 H33       -19.0357  -10.1895   38.4310 H         1 UNK         0.0600 
     34 H34       -17.9746   -9.2451   39.4558 H         1 UNK         0.0600 
     35 H35       -13.4780   -9.5533   39.9588 H         1 UNK         0.0300 
     36 H36       -14.2734  -10.1249   41.4460 H         1 UNK         0.0300 
     37 H37       -14.3160   -8.4205   41.0121 H         1 UNK         0.0300 
     38 H38       -19.8967  -13.4494   36.2583 H         1 UNK         0.0300 
     39 H39       -18.9730  -14.3539   37.4512 H         1 UNK         0.0300 
     40 H40       -18.2109  -13.8283   35.9289 H         1 UNK         0.0300 
     41 H41       -13.6950  -17.1910   39.4032 H         1 UNK         0.0600 
     42 H42       -14.5933  -17.7250   37.9994 H         1 UNK         0.0600 
     43 H43       -12.1721  -15.8325   37.9101 H         1 UNK         0.0600 
     44 H44       -13.0681  -16.3765   36.5109 H         1 UNK         0.0600 
     45 H45       -14.6819  -14.7955   36.9350 H         1 UNK         0.3000 
@<TRIPOS>BOND
     1    1    2 ar   
     2    1    3 ar   
     3    1   26 1    
     4    2    4 ar   
     5    2   27 1    
     6    3    9 ar   
     7    3   28 1    
     8    4   12 ar   
     9    4   29 1    
    10    5    7 ar   
    11    5   10 ar   
    12    5   30 1    
    13    6    7 ar   
    14    6   11 ar   
    15    6   31 1    
    16    7   14 1    
    17    8   10 ar   
    18    8   11 ar   
    19    8   15 1    
    20    9   12 ar   
    21    9   20 1    
    22   10   23 1    
    23   11   24 1    
    24   12   25 1    
    25   13   18 1    
    26   13   20 2    
    27   13   25 1    
    28   14   21 am   BACKBONE|DICT|INTERRES
    29   14   22 2    
    30   15   32 1    
    31   15   33 1    
    32   15   34 1    
    33   16   23 1    
    34   16   35 1    
    35   16   36 1    
    36   16   37 1    
    37   17   24 1    
    38   17   38 1    
    39   17   39 1    
    40   17   40 1    
    41   18   19 1    
    42   18   41 1    
    43   18   42 1    
    44   19   21 1    
    45   19   43 1    
    46   19   44 1    
    47   21   45 1    
@<TRIPOS>SUBSTRUCTURE
     1 UNK         1 GROUP             0       ****    0 ROOT    
@<TRIPOS>MOLECULE
ZINC73091014_81
47   49    1
SMALL
USER_CHARGES


@<TRIPOS>ATOM
      1 C1         -7.2264  -12.5766   41.3600 C.ar      1 UNK         0.2270 
      2 C2         -7.3067  -13.3283   40.1794 C.ar      1 UNK        -0.4470 
      3 C3         -8.0150  -14.1743   35.6763 C.ar      1 UNK        -0.3200 
      4 C4         -7.4502  -11.1915   41.3139 C.ar      1 UNK        -0.1120 
      5 C5         -7.7459  -10.6042   40.0564 C.ar      1 UNK         0.3700 
      6 C6         -7.4521  -15.1716   36.5131 C.ar      1 UNK         0.2230 
      7 C7         -8.1556  -13.0848   36.4914 C.ar      1 UNK         0.0560 
      8 C8         -7.6070  -12.6806   38.9631 C.ar      1 UNK         0.6075 
      9 C9         -7.9837   -9.1356   39.8867 C.2       1 UNK         0.6250 
     10 C10        -9.8939   -6.0969   36.5631 C.3       1 UNK        -0.1200 
     11 C11        -9.4296   -7.4948   37.0020 C.3       1 UNK        -0.1200 
     12 C12       -11.1398   -5.6497   37.3461 C.3       1 UNK        -0.1200 
     13 C13       -10.4380   -7.1061   39.2931 C.3       1 UNK        -0.1200 
     14 C14        -9.1803   -7.5449   38.5189 C.3       1 UNK         0.2200 
     15 C15       -10.8976   -5.7021   38.8683 C.3       1 UNK         0.1700 
     16 C16        -7.0796  -16.5812   36.1686 C.3       1 UNK        -0.0650 
     17 C17        -8.7101  -11.7408   36.1369 C.3       1 UNK        -0.0650 
     18 C18       -12.4062   -4.0411   39.6868 C.3       1 UNK         0.1100 
     19 N19        -7.8118  -11.3493   38.9261 N.ar      1 UNK        -0.6780 
     20 N20        -7.2622  -14.7352   37.7420 N.2       1 UNK        -0.5310 
     21 N21        -7.6867  -13.4451   37.7556 N.pl3     1 UNK         0.0695 
     22 O22        -7.4822   -8.2515   40.5840 O.2       1 UNK        -0.4300 
     23 O23        -8.8333   -8.8776   38.8608 O.3       1 UNK        -0.3300 
     24 O24       -12.0982   -5.4224   39.5740 O.3       1 UNK        -0.4000 
     25 Cl25       -7.3837  -10.3038   42.7985 Cl        1 UNK        -0.1800 
     26 H26        -7.0024  -13.0616   42.2987 H         1 UNK         0.0650 
     27 H27        -7.1404  -14.3949   40.2083 H         1 UNK         0.1550 
     28 H28        -8.2783  -14.2482   34.6319 H         1 UNK         0.1500 
     29 H29        -9.0880   -5.3787   36.7199 H         1 UNK         0.0600 
     30 H30       -10.1064   -6.0941   35.4937 H         1 UNK         0.0600 
     31 H31       -10.1842   -8.2339   36.7281 H         1 UNK         0.0600 
     32 H32        -8.5200   -7.7702   36.4669 H         1 UNK         0.0600 
     33 H33       -11.4177   -4.6428   37.0354 H         1 UNK         0.0600 
     34 H34       -11.9830   -6.2929   37.0899 H         1 UNK         0.0600 
     35 H35       -11.2440   -7.8209   39.1227 H         1 UNK         0.0600 
     36 H36       -10.2388   -7.1142   40.3652 H         1 UNK         0.0600 
     37 H37        -8.3576   -6.8659   38.7507 H         1 UNK         0.0300 
     38 H38       -10.1209   -4.9875   39.1484 H         1 UNK         0.0300 
     39 H39        -6.0874  -16.8282   36.5467 H         1 UNK         0.0600 
     40 H40        -7.7876  -17.2868   36.6025 H         1 UNK         0.0600 
     41 H41        -7.0716  -16.7348   35.0898 H         1 UNK         0.0600 
     42 H42        -9.5378  -11.4730   36.7939 H         1 UNK         0.0600 
     43 H43        -7.9444  -10.9695   36.2218 H         1 UNK         0.0600 
     44 H44        -9.0821  -11.7289   35.1128 H         1 UNK         0.0600 
     45 H45       -13.3258   -3.9217   40.2595 H         1 UNK         0.0300 
     46 H46       -12.5618   -3.5777   38.7130 H         1 UNK         0.0300 
     47 H47       -11.6163   -3.5012   40.2102 H         1 UNK         0.0300 
@<TRIPOS>BOND
     1    1    2 ar   
     2    1    4 ar   
     3    1   26 1    
     4    2    8 ar   
     5    2   27 1    
     6    3    6 ar   
     7    3    7 ar   
     8    3   28 1    
     9    4    5 ar   
    10    4   25 1    
    11    5    9 1    
    12    5   19 ar   
    13    6   16 1    
    14    6   20 ar   
    15    7   17 1    
    16    7   21 ar   
    17    8   19 ar   
    18    8   21 1    
    19    9   22 2    
    20    9   23 1    
    21   10   11 1    
    22   10   12 1    
    23   10   29 1    
    24   10   30 1    
    25   11   14 1    
    26   11   31 1    
    27   11   32 1    
    28   12   15 1    
    29   12   33 1    
    30   12   34 1    
    31   13   14 1    
    32   13   15 1    
    33   13   35 1    
    34   13   36 1    
    35   14   23 1    
    36   14   37 1    
    37   15   24 1    
    38   15   38 1    
    39   16   39 1    
    40   16   40 1    
    41   16   41 1    
    42   17   42 1    
    43   17   43 1    
    44   17   44 1    
    45   18   24 1    
    46   18   45 1    
    47   18   46 1    
    48   18   47 1    
    49   20   21 ar   
@<TRIPOS>SUBSTRUCTURE
     1 UNK         1 GROUP             0       ****    0 ROOT    
@<TRIPOS>MOLECULE
ZINC73955962_124
50   52    1
SMALL
USER_CHARGES


@<TRIPOS>ATOM
      1 C1         -9.3640  -20.5120   36.2202 C.ar      1 UNK        -0.1150 
      2 C2         -9.7271  -19.1547   36.1671 C.ar      1 UNK        -0.1150 
      3 C3        -13.0976  -21.4280   39.2236 C.ar      1 UNK        -0.1150 
      4 C4        -10.1211  -21.4084   36.9956 C.ar      1 UNK        -0.1150 
      5 C5        -10.8478  -18.6938   36.8845 C.ar      1 UNK        -0.1150 
      6 C6        -11.9814  -21.8662   38.4928 C.ar      1 UNK        -0.1150 
      7 C7        -13.4853  -20.0773   39.1765 C.ar      1 UNK        -0.1150 
      8 C8        -16.2023  -13.3251   38.6982 C.ar      1 UNK        -0.1150 
      9 C9        -13.9652  -12.4441   39.0594 C.ar      1 UNK        -0.1150 
     10 C10       -11.2435  -20.9516   37.7175 C.ar      1 UNK         0.0000 
     11 C11       -11.6255  -19.5836   37.6665 C.ar      1 UNK         0.0000 
     12 C12       -14.8554  -13.5340   39.0619 C.ar      1 UNK        -0.1150 
     13 C13       -12.7648  -19.1404   38.3956 C.ar      1 UNK        -0.1150 
     14 C14       -16.6496  -12.0448   38.2905 C.ar      1 UNK         0.0850 
     15 C15       -14.3822  -11.1575   38.6727 C.ar      1 UNK         0.0850 
     16 C16       -15.7299  -10.9655   38.2526 C.ar      1 UNK         0.0850 
     17 C17       -14.3703  -14.8844   39.4944 C.2       1 UNK         0.6150 
     18 C18       -18.9176  -12.8210   38.0283 C.3       1 UNK         0.1100 
     19 C19       -13.7798   -8.8255   38.8446 C.3       1 UNK         0.1100 
     20 C20       -16.3915   -9.6730   36.4131 C.3       1 UNK         0.1100 
     21 C21       -13.1974  -17.6726   38.3339 C.3       1 UNK        -0.0050 
     22 C22       -14.5195  -17.3163   39.0431 C.3       1 UNK         0.0800 
     23 N23       -14.8850  -15.9213   38.8228 N.am      1 UNK        -0.5000 
     24 O24       -13.5090  -15.0071   40.3608 O.2       1 UNK        -0.5000 
     25 O25       -17.9556  -11.7817   37.9278 O.3       1 UNK        -0.2850 
     26 O26       -13.4013  -10.1872   38.7124 O.3       1 UNK        -0.2850 
     27 O27       -16.1619   -9.7385   37.8129 O.3       1 UNK        -0.2850 
     28 H28        -8.5036  -20.8648   35.6702 H         1 UNK         0.1150 
     29 H29        -9.1437  -18.4631   35.5767 H         1 UNK         0.1150 
     30 H30       -13.6578  -22.1307   39.8233 H         1 UNK         0.1150 
     31 H31        -9.8339  -22.4488   37.0358 H         1 UNK         0.1150 
     32 H32       -11.0868  -17.6439   36.8224 H         1 UNK         0.1150 
     33 H33       -11.6914  -22.9058   38.5352 H         1 UNK         0.1150 
     34 H34       -14.3465  -19.7861   39.7573 H         1 UNK         0.1150 
     35 H35       -16.8847  -14.1586   38.7486 H         1 UNK         0.1150 
     36 H36       -12.9392  -12.5937   39.3664 H         1 UNK         0.1150 
     37 H37       -19.8939  -12.4345   37.7361 H         1 UNK         0.0300 
     38 H38       -19.0030  -13.1889   39.0516 H         1 UNK         0.0300 
     39 H39       -18.6797  -13.6506   37.3614 H         1 UNK         0.0300 
     40 H40       -14.0766   -8.4025   37.8849 H         1 UNK         0.0300 
     41 H41       -12.9240   -8.2515   39.1992 H         1 UNK         0.0300 
     42 H42       -14.5847   -8.6926   39.5692 H         1 UNK         0.0300 
     43 H43       -16.4805   -8.6296   36.1115 H         1 UNK         0.0300 
     44 H44       -17.3140  -10.1772   36.1269 H         1 UNK         0.0300 
     45 H45       -15.5648  -10.1116   35.8517 H         1 UNK         0.0300 
     46 H46       -13.2876  -17.3946   37.2832 H         1 UNK         0.0600 
     47 H47       -12.3902  -17.0700   38.7538 H         1 UNK         0.0600 
     48 H48       -15.3302  -17.9366   38.6598 H         1 UNK         0.0600 
     49 H49       -14.4443  -17.5100   40.1154 H         1 UNK         0.0600 
     50 H50       -15.5434  -15.7139   38.0895 H         1 UNK         0.3000 
@<TRIPOS>BOND
     1    1    2 ar   
     2    1    4 ar   
     3    1   28 1    
     4    2    5 ar   
     5    2   29 1    
     6    3    6 ar   
     7    3    7 ar   
     8    3   30 1    
     9    4   10 ar   
    10    4   31 1    
    11    5   11 ar   
    12    5   32 1    
    13    6   10 ar   
    14    6   33 1    
    15    7   13 ar   
    16    7   34 1    
    17    8   12 ar   
    18    8   14 ar   
    19    8   35 1    
    20    9   12 ar   
    21    9   15 ar   
    22    9   36 1    
    23   10   11 ar   
    24   11   13 ar   
    25   12   17 1    
    26   13   21 1    
    27   14   16 ar   
    28   14   25 1    
    29   15   16 ar   
    30   15   26 1    
    31   16   27 1    
    32   17   23 am   BACKBONE|DICT|INTERRES
    33   17   24 2    
    34   18   25 1    
    35   18   37 1    
    36   18   38 1    
    37   18   39 1    
    38   19   26 1    
    39   19   40 1    
    40   19   41 1    
    41   19   42 1    
    42   20   27 1    
    43   20   43 1    
    44   20   44 1    
    45   20   45 1    
    46   21   22 1    
    47   21   46 1    
    48   21   47 1    
    49   22   23 1    
    50   22   48 1    
    51   22   49 1    
    52   23   50 1    
@<TRIPOS>SUBSTRUCTURE
     1 UNK         1 GROUP             0       ****    0 ROOT    
@<TRIPOS>MOLECULE
ZINC74789654_17
41   43    1
SMALL
USER_CHARGES


@<TRIPOS>ATOM
      1 C1        -12.4682  -20.3570   37.1344 C.ar      1 UNK        -0.1150 
      2 C2        -13.1697  -19.1324   37.1792 C.ar      1 UNK        -0.1150 
      3 C3        -17.3509  -15.9006   37.8059 C.ar      1 UNK        -0.1150 
      4 C4        -15.6734  -14.3719   38.6825 C.ar      1 UNK        -0.1150 
      5 C5        -13.7722  -21.2148   39.0237 C.ar      1 UNK        -0.1150 
      6 C6        -18.0161  -13.7123   38.6387 C.ar      1 UNK        -0.1150 
      7 C7        -16.0063  -15.6266   38.1343 C.ar      1 UNK        -0.1150 
      8 C8        -14.4589  -19.9891   39.0536 C.ar      1 UNK        -0.1150 
      9 C9        -12.7663  -21.3961   38.0483 C.ar      1 UNK        -0.1150 
     10 C10       -14.1722  -18.9635   38.1588 C.ar      1 UNK        -0.0383 
     11 C11       -18.3648  -14.9593   38.0616 C.ar      1 UNK         0.0850 
     12 C12       -16.6658  -13.4097   38.9470 C.ar      1 UNK         0.0850 
     13 C13       -14.9183  -16.6217   37.8439 C.2       1 UNK         0.6150 
     14 C14       -15.5568  -19.5959   39.9963 C.3       1 UNK        -0.0050 
     15 C15       -15.9770  -18.2033   39.4754 C.3       1 UNK        -0.0500 
     16 C16       -12.0022  -22.7015   37.9742 C.3       1 UNK        -0.0650 
     17 C17       -20.7011  -14.4080   37.9620 C.3       1 UNK         0.1100 
     18 C18       -17.2092  -11.2163   39.7658 C.3       1 UNK         0.1100 
     19 N19       -15.0263  -17.8565   38.4017 N.am      1 UNK        -0.0317 
     20 O20       -13.9684  -16.2560   37.1516 O.2       1 UNK        -0.5000 
     21 O21       -19.6480  -15.3301   37.7232 O.3       1 UNK        -0.2850 
     22 O22       -16.2415  -12.2206   39.4994 O.3       1 UNK        -0.2850 
     23 H23       -11.6984  -20.4964   36.3892 H         1 UNK         0.1150 
     24 H24       -12.9313  -18.3565   36.4667 H         1 UNK         0.1150 
     25 H25       -17.6151  -16.8407   37.3434 H         1 UNK         0.1150 
     26 H26       -14.6402  -14.1436   38.9053 H         1 UNK         0.1150 
     27 H27       -14.0131  -21.9961   39.7296 H         1 UNK         0.1150 
     28 H28       -18.7836  -12.9837   38.8374 H         1 UNK         0.1150 
     29 H29       -16.3772  -20.3135   39.9617 H         1 UNK         0.0600 
     30 H30       -15.1719  -19.5469   41.0154 H         1 UNK         0.0600 
     31 H31       -16.9895  -18.2580   39.0770 H         1 UNK         0.0600 
     32 H32       -15.9638  -17.4630   40.2768 H         1 UNK         0.0600 
     33 H33       -10.9730  -22.5548   38.3026 H         1 UNK         0.0600 
     34 H34       -12.4567  -23.4654   38.6053 H         1 UNK         0.0600 
     35 H35       -11.9872  -23.0750   36.9500 H         1 UNK         0.0600 
     36 H36       -20.5594  -13.4851   37.3978 H         1 UNK         0.0300 
     37 H37       -20.7922  -14.1737   39.0234 H         1 UNK         0.0300 
     38 H38       -21.6445  -14.8485   37.6402 H         1 UNK         0.0300 
     39 H39       -17.7154  -10.8972   38.8538 H         1 UNK         0.0300 
     40 H40       -16.7126  -10.3432   40.1889 H         1 UNK         0.0300 
     41 H41       -17.9490  -11.5581   40.4908 H         1 UNK         0.0300 
@<TRIPOS>BOND
     1    1    2 ar   
     2    1    9 ar   
     3    1   23 1    
     4    2   10 ar   
     5    2   24 1    
     6    3    7 ar   
     7    3   11 ar   
     8    3   25 1    
     9    4    7 ar   
    10    4   12 ar   
    11    4   26 1    
    12    5    8 ar   
    13    5    9 ar   
    14    5   27 1    
    15    6   11 ar   
    16    6   12 ar   
    17    6   28 1    
    18    7   13 1    
    19    8   10 ar   
    20    8   14 1    
    21    9   16 1    
    22   10   19 1    
    23   11   21 1    
    24   12   22 1    
    25   13   19 am   BACKBONE|DICT|INTERRES
    26   13   20 2    
    27   14   15 1    
    28   14   29 1    
    29   14   30 1    
    30   15   19 1    
    31   15   31 1    
    32   15   32 1    
    33   16   33 1    
    34   16   34 1    
    35   16   35 1    
    36   17   21 1    
    37   17   36 1    
    38   17   37 1    
    39   17   38 1    
    40   18   22 1    
    41   18   39 1    
    42   18   40 1    
    43   18   41 1    
@<TRIPOS>SUBSTRUCTURE
     1 UNK         1 GROUP             0       ****    0 ROOT    
@<TRIPOS>MOLECULE
ZINC74789660_20
41   43    1
SMALL
USER_CHARGES


@<TRIPOS>ATOM
      1 C1         -6.2834   -3.9867   39.4015 C.ar      1 UNK        -0.1150 
      2 C2         -4.6061   -8.2928   36.9033 C.ar      1 UNK        -0.1150 
      3 C3         -5.0694   -7.4568   37.9420 C.ar      1 UNK        -0.1150 
      4 C4         -6.7032   -3.1592   38.3467 C.ar      1 UNK        -0.1150 
      5 C5         -7.6654   -5.7779   38.5158 C.ar      1 UNK        -0.1150 
      6 C6         -4.7701  -10.2547   38.3609 C.ar      1 UNK        -0.1150 
      7 C7         -6.7457   -5.3125   39.4802 C.ar      1 UNK        -0.1150 
      8 C8         -5.2346   -9.4074   39.3812 C.ar      1 UNK        -0.1150 
      9 C9         -4.4629   -9.6863   37.1050 C.ar      1 UNK        -0.1150 
     10 C10        -5.4117   -8.0413   39.1820 C.ar      1 UNK        -0.0383 
     11 C11        -7.5965   -3.6207   37.3590 C.ar      1 UNK         0.0850 
     12 C12        -8.0859   -4.9612   37.4334 C.ar      1 UNK         0.0850 
     13 C13        -6.3206   -6.1871   40.6268 C.2       1 UNK         0.6150 
     14 C14        -5.5666   -9.7997   40.7916 C.3       1 UNK        -0.0050 
     15 C15        -5.8380   -8.4396   41.4710 C.3       1 UNK        -0.0500 
     16 C16        -3.9552  -10.5640   35.9801 C.3       1 UNK        -0.0650 
     17 C17        -8.9172   -2.9273   35.4367 C.3       1 UNK         0.1100 
     18 C18        -9.2988   -6.8135   36.4623 C.3       1 UNK         0.1100 
     19 N19        -5.8757   -7.4466   40.3873 N.am      1 UNK        -0.0317 
     20 O20        -6.3822   -5.7278   41.7683 O.2       1 UNK        -0.5000 
     21 O21        -7.8967   -2.6813   36.3907 O.3       1 UNK        -0.2850 
     22 O22        -8.9420   -5.4382   36.4605 O.3       1 UNK        -0.2850 
     23 H23        -5.6064   -3.6029   40.1521 H         1 UNK         0.1150 
     24 H24        -4.3491   -7.8553   35.9491 H         1 UNK         0.1150 
     25 H25        -5.1379   -6.3942   37.7651 H         1 UNK         0.1150 
     26 H26        -6.3380   -2.1442   38.2925 H         1 UNK         0.1150 
     27 H27        -8.0239   -6.7898   38.6228 H         1 UNK         0.1150 
     28 H28        -4.6421  -11.3124   38.5403 H         1 UNK         0.1150 
     29 H29        -6.4518  -10.4366   40.7984 H         1 UNK         0.0600 
     30 H30        -4.7403  -10.3359   41.2594 H         1 UNK         0.0600 
     31 H31        -6.7672   -8.4551   42.0430 H         1 UNK         0.0600 
     32 H32        -5.0271   -8.1810   42.1537 H         1 UNK         0.0600 
     33 H33        -2.8651  -10.5773   35.9771 H         1 UNK         0.0600 
     34 H34        -4.3110  -11.5886   36.0917 H         1 UNK         0.0600 
     35 H35        -4.2976  -10.1930   35.0136 H         1 UNK         0.0600 
     36 H36        -9.0810   -2.0226   34.8515 H         1 UNK         0.0300 
     37 H37        -9.8645   -3.1804   35.9147 H         1 UNK         0.0300 
     38 H38        -8.6294   -3.7139   34.7384 H         1 UNK         0.0300 
     39 H39        -9.9067   -7.0259   35.5830 H         1 UNK         0.0300 
     40 H40        -9.8926   -7.0706   37.3402 H         1 UNK         0.0300 
     41 H41        -8.4188   -7.4571   36.4154 H         1 UNK         0.0300 
@<TRIPOS>BOND
     1    1    4 ar   
     2    1    7 ar   
     3    1   23 1    
     4    2    3 ar   
     5    2    9 ar   
     6    2   24 1    
     7    3   10 ar   
     8    3   25 1    
     9    4   11 ar   
    10    4   26 1    
    11    5    7 ar   
    12    5   12 ar   
    13    5   27 1    
    14    6    8 ar   
    15    6    9 ar   
    16    6   28 1    
    17    7   13 1    
    18    8   10 ar   
    19    8   14 1    
    20    9   16 1    
    21   10   19 1    
    22   11   12 ar   
    23   11   21 1    
    24   12   22 1    
    25   13   19 am   BACKBONE|DICT|INTERRES
    26   13   20 2    
    27   14   15 1    
    28   14   29 1    
    29   14   30 1    
    30   15   19 1    
    31   15   31 1    
    32   15   32 1    
    33   16   33 1    
    34   16   34 1    
    35   16   35 1    
    36   17   21 1    
    37   17   36 1    
    38   17   37 1    
    39   17   38 1    
    40   18   22 1    
    41   18   39 1    
    42   18   40 1    
    43   18   41 1    
@<TRIPOS>SUBSTRUCTURE
     1 UNK         1 GROUP             0       ****    0 ROOT    
@<TRIPOS>MOLECULE
ZINC74789661_18
45   47    1
SMALL
USER_CHARGES


@<TRIPOS>ATOM
      1 C1         -4.6937   -8.0570   36.7784 C.ar      1 UNK        -0.1150 
      2 C2         -5.1805   -7.3026   37.8680 C.ar      1 UNK        -0.1150 
      3 C3         -6.6725   -4.0111   39.5296 C.ar      1 UNK        -0.1150 
      4 C4         -7.8991   -5.9195   38.6374 C.ar      1 UNK        -0.1150 
      5 C5         -4.5817  -10.0668   38.1742 C.ar      1 UNK        -0.1150 
      6 C6         -6.9816   -5.3858   39.5685 C.ar      1 UNK        -0.1150 
      7 C7         -5.0722   -9.3014   39.2453 C.ar      1 UNK        -0.1150 
      8 C8         -4.4021   -9.4344   36.9244 C.ar      1 UNK        -0.1150 
      9 C9         -5.3952   -7.9553   39.1026 C.ar      1 UNK        -0.0383 
     10 C10        -7.2330   -3.1726   38.5370 C.ar      1 UNK         0.0850 
     11 C11        -8.4612   -5.1027   37.6273 C.ar      1 UNK         0.0850 
     12 C12        -8.1132   -3.7320   37.5841 C.ar      1 UNK         0.0850 
     13 C13        -6.4016   -6.2454   40.6559 C.2       1 UNK         0.6150 
     14 C14        -5.2884   -9.7675   40.6559 C.3       1 UNK        -0.0050 
     15 C15        -5.6565   -8.4624   41.3948 C.3       1 UNK        -0.0500 
     16 C16        -3.8752  -10.2279   35.7468 C.3       1 UNK        -0.0650 
     17 C17        -6.1516   -1.2178   39.4258 C.3       1 UNK         0.1100 
     18 C18        -9.6935   -6.9428   36.6871 C.3       1 UNK         0.1100 
     19 C19        -8.0308   -3.0396   35.3594 C.3       1 UNK         0.1100 
     20 N20        -5.8510   -7.4470   40.3496 N.am      1 UNK        -0.0317 
     21 O21        -6.4326   -5.8237   41.8130 O.2       1 UNK        -0.5000 
     22 O22        -6.9622   -1.8240   38.4308 O.3       1 UNK        -0.2850 
     23 O23        -9.3432   -5.5673   36.6733 O.3       1 UNK        -0.2850 
     24 O24        -8.6543   -2.9136   36.6260 O.3       1 UNK        -0.2850 
     25 H25        -4.5346   -7.5682   35.8279 H         1 UNK         0.1150 
     26 H26        -5.3643   -6.2477   37.7322 H         1 UNK         0.1150 
     27 H27        -5.9979   -3.6224   40.2778 H         1 UNK         0.1150 
     28 H28        -8.1483   -6.9671   38.7096 H         1 UNK         0.1150 
     29 H29        -4.3398  -11.1113   38.3090 H         1 UNK         0.1150 
     30 H30        -6.1049  -10.4897   40.6842 H         1 UNK         0.0600 
     31 H31        -4.3902  -10.2327   41.0635 H         1 UNK         0.0600 
     32 H32        -6.5479   -8.5885   42.0117 H         1 UNK         0.0600 
     33 H33        -4.8397   -8.1439   42.0443 H         1 UNK         0.0600 
     34 H34        -2.7850  -10.2345   35.7545 H         1 UNK         0.0600 
     35 H35        -4.2251  -11.2598   35.7879 H         1 UNK         0.0600 
     36 H36        -4.2099   -9.7972   34.8027 H         1 UNK         0.0600 
     37 H37        -6.0703   -0.1504   39.2212 H         1 UNK         0.0300 
     38 H38        -5.1422   -1.6311   39.4238 H         1 UNK         0.0300 
     39 H39        -6.5883   -1.3304   40.4192 H         1 UNK         0.0300 
     40 H40       -10.3822   -7.1450   35.8667 H         1 UNK         0.0300 
     41 H41       -10.1978   -7.2161   37.6149 H         1 UNK         0.0300 
     42 H42        -8.8186   -7.5794   36.5471 H         1 UNK         0.0300 
     43 H43        -8.4651   -2.3181   34.6677 H         1 UNK         0.0300 
     44 H44        -8.1697   -4.0345   34.9354 H         1 UNK         0.0300 
     45 H45        -6.9612   -2.8354   35.4282 H         1 UNK         0.0300 
@<TRIPOS>BOND
     1    1    2 ar   
     2    1    8 ar   
     3    1   25 1    
     4    2    9 ar   
     5    2   26 1    
     6    3    6 ar   
     7    3   10 ar   
     8    3   27 1    
     9    4    6 ar   
    10    4   11 ar   
    11    4   28 1    
    12    5    7 ar   
    13    5    8 ar   
    14    5   29 1    
    15    6   13 1    
    16    7    9 ar   
    17    7   14 1    
    18    8   16 1    
    19    9   20 1    
    20   10   12 ar   
    21   10   22 1    
    22   11   12 ar   
    23   11   23 1    
    24   12   24 1    
    25   13   20 am   BACKBONE|DICT|INTERRES
    26   13   21 2    
    27   14   15 1    
    28   14   30 1    
    29   14   31 1    
    30   15   20 1    
    31   15   32 1    
    32   15   33 1    
    33   16   34 1    
    34   16   35 1    
    35   16   36 1    
    36   17   22 1    
    37   17   37 1    
    38   17   38 1    
    39   17   39 1    
    40   18   23 1    
    41   18   40 1    
    42   18   41 1    
    43   18   42 1    
    44   19   24 1    
    45   19   43 1    
    46   19   44 1    
    47   19   45 1    
@<TRIPOS>SUBSTRUCTURE
     1 UNK         1 GROUP             0       ****    0 ROOT    
@<TRIPOS>MOLECULE
ZINC74914032_13
45   47    1
SMALL
USER_CHARGES


@<TRIPOS>ATOM
      1 C1         -4.3953   -9.3442   36.9291 C.ar      1 UNK        -0.1150 
      2 C2         -4.6809   -7.9675   36.7844 C.ar      1 UNK        -0.1150 
      3 C3         -4.6053   -9.9893   38.1658 C.ar      1 UNK        -0.1150 
      4 C4         -5.1933   -7.2219   37.8682 C.ar      1 UNK        -0.1150 
      5 C5         -6.7045   -3.9422   39.5080 C.ar      1 UNK        -0.1150 
      6 C6         -7.9270   -5.8385   38.5859 C.ar      1 UNK        -0.1150 
      7 C7         -7.0250   -5.3144   39.5369 C.ar      1 UNK        -0.1150 
      8 C8         -5.1227   -9.2337   39.2328 C.ar      1 UNK        -0.1150 
      9 C9         -5.4387   -7.8850   39.0922 C.ar      1 UNK        -0.0383 
     10 C10        -7.2382   -3.0969   38.5063 C.ar      1 UNK         0.0850 
     11 C11        -8.4636   -5.0152   37.5675 C.ar      1 UNK         0.0850 
     12 C12        -8.1045   -3.6467   37.5348 C.ar      1 UNK         0.0850 
     13 C13        -6.4745   -6.1829   40.6324 C.2       1 UNK         0.6150 
     14 C14        -5.7731   -8.4123   41.3715 C.3       1 UNK        -0.0500 
     15 C15        -5.3648   -9.7126   40.6379 C.3       1 UNK         0.0550 
     16 C16        -6.4386  -10.8076   40.7044 C.3       1 UNK        -0.1800 
     17 C17        -6.1316   -1.1597   39.4039 C.3       1 UNK         0.1100 
     18 C18        -9.6784   -6.8496   36.5935 C.3       1 UNK         0.1100 
     19 C19        -7.9987   -2.9664   35.3048 C.3       1 UNK         0.1100 
     20 N20        -5.9233   -7.3850   40.3309 N.am      1 UNK        -0.0317 
     21 O21        -6.5307   -5.7683   41.7909 O.2       1 UNK        -0.5000 
     22 O22        -6.9539   -1.7502   38.4088 O.3       1 UNK        -0.2850 
     23 O23        -9.3314   -5.4730   36.5971 O.3       1 UNK        -0.2850 
     24 O24        -8.6203   -2.8191   36.5703 O.3       1 UNK        -0.2850 
     25 H25        -3.9973   -9.9013   36.0932 H         1 UNK         0.1150 
     26 H26        -4.4958   -7.4785   35.8388 H         1 UNK         0.1150 
     27 H27        -4.3653  -11.0351   38.2918 H         1 UNK         0.1150 
     28 H28        -5.3727   -6.1657   37.7361 H         1 UNK         0.1150 
     29 H29        -6.0427   -3.5606   40.2710 H         1 UNK         0.1150 
     30 H30        -8.1848   -6.8846   38.6510 H         1 UNK         0.1150 
     31 H31        -6.6916   -8.5349   41.9481 H         1 UNK         0.0600 
     32 H32        -4.9890   -8.0994   42.0628 H         1 UNK         0.0600 
     33 H33        -4.4271  -10.0927   41.0461 H         1 UNK         0.0600 
     34 H34        -7.3866  -10.4580   40.2944 H         1 UNK         0.0600 
     35 H35        -6.6143  -11.1224   41.7333 H         1 UNK         0.0600 
     36 H36        -6.1370  -11.6885   40.1377 H         1 UNK         0.0600 
     37 H37        -6.0313   -0.0935   39.2012 H         1 UNK         0.0300 
     38 H38        -5.1298   -1.5911   39.4000 H         1 UNK         0.0300 
     39 H39        -6.5687   -1.2659   40.3977 H         1 UNK         0.0300 
     40 H40       -10.3481   -7.0487   35.7569 H         1 UNK         0.0300 
     41 H41       -10.2021   -7.1308   37.5080 H         1 UNK         0.0300 
     42 H42        -8.7986   -7.4828   36.4691 H         1 UNK         0.0300 
     43 H43        -8.4076   -2.2306   34.6127 H         1 UNK         0.0300 
     44 H44        -8.1702   -3.9552   34.8792 H         1 UNK         0.0300 
     45 H45        -6.9231   -2.7981   35.3749 H         1 UNK         0.0300 
@<TRIPOS>BOND
     1    1    2 ar   
     2    1    3 ar   
     3    1   25 1    
     4    2    4 ar   
     5    2   26 1    
     6    3    8 ar   
     7    3   27 1    
     8    4    9 ar   
     9    4   28 1    
    10    5    7 ar   
    11    5   10 ar   
    12    5   29 1    
    13    6    7 ar   
    14    6   11 ar   
    15    6   30 1    
    16    7   13 1    
    17    8    9 ar   
    18    8   15 1    
    19    9   20 1    
    20   10   12 ar   
    21   10   22 1    
    22   11   12 ar   
    23   11   23 1    
    24   12   24 1    
    25   13   20 am   BACKBONE|DICT|INTERRES
    26   13   21 2    
    27   14   15 1    
    28   14   20 1    
    29   14   31 1    
    30   14   32 1    
    31   15   16 1    
    32   15   33 1    
    33   16   34 1    
    34   16   35 1    
    35   16   36 1    
    36   17   22 1    
    37   17   37 1    
    38   17   38 1    
    39   17   39 1    
    40   18   23 1    
    41   18   40 1    
    42   18   41 1    
    43   18   42 1    
    44   19   24 1    
    45   19   43 1    
    46   19   44 1    
    47   19   45 1    
@<TRIPOS>SUBSTRUCTURE
     1 UNK         1 GROUP             0       ****    0 ROOT    
@<TRIPOS>MOLECULE
ZINC75261108_118
45   46    1
SMALL
USER_CHARGES


@<TRIPOS>ATOM
      1 C1         -7.2412  -12.1547   35.1901 C.ar      1 UNK        -0.1150 
      2 C2         -6.6884  -13.4485   35.1573 C.ar      1 UNK        -0.1150 
      3 C3         -7.3360  -11.4552   36.4086 C.ar      1 UNK        -0.1150 
      4 C4         -9.7642   -8.2042   38.4468 C.ar      1 UNK        -0.1150 
      5 C5         -8.8681   -6.1261   39.3283 C.ar      1 UNK        -0.1150 
      6 C6         -6.3259  -13.3443   37.5667 C.ar      1 UNK        -0.1150 
      7 C7         -8.9807   -7.5287   39.4056 C.ar      1 UNK        -0.1150 
      8 C8         -6.2284  -14.0466   36.3475 C.ar      1 UNK        -0.1150 
      9 C9         -6.8754  -12.0456   37.6086 C.ar      1 UNK         0.2000 
     10 C10       -10.3938   -7.4977   37.3963 C.ar      1 UNK         0.0850 
     11 C11        -9.5009   -5.3883   38.2968 C.ar      1 UNK         0.0850 
     12 C12       -10.2501   -6.0931   37.3092 C.ar      1 UNK         0.0850 
     13 C13        -7.7979   -9.6363   40.2939 C.2       1 UNK        -0.1150 
     14 C14        -7.4047  -10.1081   39.0947 C.2       1 UNK        -0.0970 
     15 C15        -8.2814   -8.2532   40.5102 C.2       1 UNK         0.5850 
     16 C16        -5.6338  -15.4401   36.3233 C.3       1 UNK        -0.0650 
     17 C17       -11.3020   -9.5242   36.4574 C.3       1 UNK         0.1100 
     18 C18        -8.7375   -3.3043   39.2540 C.3       1 UNK         0.1100 
     19 C19       -10.3581   -4.3190   35.6744 C.3       1 UNK         0.1100 
     20 N20        -6.9561  -11.3982   38.8497 N.pl3     1 UNK        -0.5717 
     21 O21        -8.0802   -7.7025   41.5916 O.2       1 UNK        -0.4700 
     22 O22       -11.1506   -8.1130   36.4188 O.3       1 UNK        -0.2850 
     23 O23        -9.4298   -4.0100   38.2342 O.3       1 UNK        -0.2850 
     24 O24       -10.9036   -5.4976   36.2474 O.3       1 UNK        -0.2850 
     25 H25        -7.5956  -11.6962   34.2787 H         1 UNK         0.1150 
     26 H26        -6.6215  -13.9762   34.2163 H         1 UNK         0.1150 
     27 H27        -7.7730  -10.4692   36.3971 H         1 UNK         0.1150 
     28 H28        -9.8782   -9.2733   38.5328 H         1 UNK         0.1150 
     29 H29        -8.2832   -5.6315   40.0890 H         1 UNK         0.1150 
     30 H30        -5.9720  -13.8104   38.4743 H         1 UNK         0.1150 
     31 H31        -7.7583  -10.2679   41.1682 H         1 UNK         0.1150 
     32 H32        -7.4061   -9.4691   38.2237 H         1 UNK         0.1150 
     33 H33        -4.7066  -15.4711   36.8963 H         1 UNK         0.0600 
     34 H34        -6.3319  -16.1554   36.7592 H         1 UNK         0.0600 
     35 H35        -5.4099  -15.7588   35.3048 H         1 UNK         0.0600 
     36 H36       -11.9164   -9.8414   35.6149 H         1 UNK         0.0300 
     37 H37       -11.8045   -9.8468   37.3702 H         1 UNK         0.0300 
     38 H38       -10.3405  -10.0324   36.3726 H         1 UNK         0.0300 
     39 H39        -8.8062   -2.2344   39.0579 H         1 UNK         0.0300 
     40 H40        -7.6787   -3.5663   39.2732 H         1 UNK         0.0300 
     41 H41        -9.1762   -3.4866   40.2360 H         1 UNK         0.0300 
     42 H42       -10.7082   -4.2299   34.6463 H         1 UNK         0.0300 
     43 H43        -9.2674   -4.3396   35.6478 H         1 UNK         0.0300 
     44 H44       -10.6948   -3.4296   36.2075 H         1 UNK         0.0300 
     45 H45        -6.7236  -11.9734   39.6473 H         1 UNK         0.3537 
@<TRIPOS>BOND
     1    1    2 ar   
     2    1    3 ar   
     3    1   25 1    
     4    2    8 ar   
     5    2   26 1    
     6    3    9 ar   
     7    3   27 1    
     8    4    7 ar   
     9    4   10 ar   
    10    4   28 1    
    11    5    7 ar   
    12    5   11 ar   
    13    5   29 1    
    14    6    8 ar   
    15    6    9 ar   
    16    6   30 1    
    17    7   15 1    
    18    8   16 1    
    19    9   20 1    
    20   10   12 ar   
    21   10   22 1    
    22   11   12 ar   
    23   11   23 1    
    24   12   24 1    
    25   13   14 2    
    26   13   15 1    
    27   13   31 1    
    28   14   20 1    
    29   14   32 1    
    30   15   21 2    
    31   16   33 1    
    32   16   34 1    
    33   16   35 1    
    34   17   22 1    
    35   17   36 1    
    36   17   37 1    
    37   17   38 1    
    38   18   23 1    
    39   18   39 1    
    40   18   40 1    
    41   18   41 1    
    42   19   24 1    
    43   19   42 1    
    44   19   43 1    
    45   19   44 1    
    46   20   45 1    
@<TRIPOS>SUBSTRUCTURE
     1 UNK         1 GROUP             0       ****    0 ROOT    
@<TRIPOS>MOLECULE
ZINC75484709_129
43   45    1
SMALL
USER_CHARGES


@<TRIPOS>ATOM
      1 C1         -4.9652  -11.0246   35.3991 C.ar      1 UNK        -0.1150 
      2 C2         -4.7242  -12.3957   35.1959 C.ar      1 UNK        -0.1150 
      3 C3         -8.5760   -4.0051   40.0077 C.ar      1 UNK        -0.1150 
      4 C4         -5.2396  -10.5434   36.6941 C.ar      1 UNK        -0.1150 
      5 C5         -9.0171   -3.1509   38.9836 C.ar      1 UNK        -0.1150 
      6 C6         -4.7627  -13.2819   36.2888 C.ar      1 UNK        -0.1150 
      7 C7         -5.6694  -10.5753   41.2963 C.ar      1 UNK        -0.3200 
      8 C8         -8.9113   -5.9073   38.5327 C.ar      1 UNK        -0.1150 
      9 C9         -5.2070  -11.4303   40.3365 C.ar      1 UNK         0.0360 
     10 C10        -8.5173   -5.3906   39.7837 C.ar      1 UNK        -0.0418 
     11 C11        -5.2761  -11.4239   37.8023 C.ar      1 UNK         0.0731 
     12 C12        -9.4151   -3.6509   37.7272 C.ar      1 UNK         0.0850 
     13 C13        -9.3542   -5.0577   37.4843 C.ar      1 UNK         0.0850 
     14 C14        -5.0382  -12.8052   37.5856 C.ar      1 UNK         0.2200 
     15 C15        -6.2865   -9.5265   40.5582 C.ar      1 UNK         0.2230 
     16 C16        -6.9166   -8.3754   41.2621 C.2       1 UNK         0.6250 
     17 C17       -10.4774   -3.0297   35.6300 C.3       1 UNK         0.1100 
     18 C18        -9.5906   -6.9531   36.0009 C.3       1 UNK         0.1100 
     19 C19        -8.0586   -6.3156   40.8970 C.3       1 UNK         0.2318 
     20 N20        -6.2077   -9.7330   39.2486 N.2       1 UNK        -0.5310 
     21 N21        -5.5494  -10.9092   39.1005 N.pl3     1 UNK         0.1189 
     22 O22        -6.9769   -8.2662   42.4891 O.2       1 UNK        -0.4300 
     23 O23        -9.8249   -2.6751   36.8386 O.3       1 UNK        -0.2850 
     24 O24        -9.7121   -5.5590   36.2478 O.3       1 UNK        -0.2850 
     25 O25        -7.4092   -7.4718   40.4019 O.3       1 UNK        -0.3300 
     26 F26        -5.0809  -13.6973   38.6044 F         1 UNK        -0.2200 
     27 H27        -4.9397  -10.3392   34.5638 H         1 UNK         0.1150 
     28 H28        -4.5132  -12.7681   34.2037 H         1 UNK         0.1150 
     29 H29        -8.2832   -3.5919   40.9621 H         1 UNK         0.1150 
     30 H30        -5.4188   -9.4874   36.8369 H         1 UNK         0.1150 
     31 H31        -9.0584   -2.0863   39.1615 H         1 UNK         0.1150 
     32 H32        -4.5841  -14.3359   36.1373 H         1 UNK         0.1150 
     33 H33        -5.5799  -10.6711   42.3684 H         1 UNK         0.1500 
     34 H34        -8.8558   -6.9763   38.3990 H         1 UNK         0.1150 
     35 H35        -4.6600  -12.3552   40.4429 H         1 UNK         0.1350 
     36 H36       -10.8649   -2.1266   35.1591 H         1 UNK         0.0300 
     37 H37       -11.3252   -3.6928   35.8074 H         1 UNK         0.0300 
     38 H38        -9.7856   -3.4897   34.9240 H         1 UNK         0.0300 
     39 H39        -9.8876   -7.1614   34.9730 H         1 UNK         0.0300 
     40 H40       -10.2440   -7.5328   36.6541 H         1 UNK         0.0300 
     41 H41        -8.5609   -7.2936   36.1197 H         1 UNK         0.0300 
     42 H42        -7.3807   -5.7721   41.5571 H         1 UNK         0.0300 
     43 H43        -8.9264   -6.6074   41.4899 H         1 UNK         0.0300 
@<TRIPOS>BOND
     1    1    2 ar   
     2    1    4 ar   
     3    1   27 1    
     4    2    6 ar   
     5    2   28 1    
     6    3    5 ar   
     7    3   10 ar   
     8    3   29 1    
     9    4   11 ar   
    10    4   30 1    
    11    5   12 ar   
    12    5   31 1    
    13    6   14 ar   
    14    6   32 1    
    15    7    9 ar   
    16    7   15 ar   
    17    7   33 1    
    18    8   10 ar   
    19    8   13 ar   
    20    8   34 1    
    21    9   21 ar   
    22    9   35 1    
    23   10   19 1    
    24   11   14 ar   
    25   11   21 1    
    26   12   13 ar   
    27   12   23 1    
    28   13   24 1    
    29   14   26 1    
    30   15   16 1    
    31   15   20 ar   
    32   16   22 2    
    33   16   25 1    
    34   17   23 1    
    35   17   36 1    
    36   17   37 1    
    37   17   38 1    
    38   18   24 1    
    39   18   39 1    
    40   18   40 1    
    41   18   41 1    
    42   19   25 1    
    43   19   42 1    
    44   19   43 1    
    45   20   21 ar   
@<TRIPOS>SUBSTRUCTURE
     1 UNK         1 GROUP             0       ****    0 ROOT    
@<TRIPOS>MOLECULE
ZINC76246555_27
44   46    1
SMALL
USER_CHARGES


@<TRIPOS>ATOM
      1 C1         -5.2932  -14.6454   36.2995 C.ar      1 UNK        -0.1150 
      2 C2         -5.8328  -14.8536   37.5828 C.ar      1 UNK        -0.1150 
      3 C3         -5.3101  -13.3574   35.7322 C.ar      1 UNK        -0.1150 
      4 C4         -6.3918  -13.7758   38.2980 C.ar      1 UNK        -0.1150 
      5 C5         -5.8680  -12.2794   36.4470 C.ar      1 UNK        -0.1150 
      6 C6         -7.8739  -11.4294   39.5094 C.ar      1 UNK         0.0360 
      7 C7         -6.4170  -12.4786   37.7351 C.ar      1 UNK         0.0731 
      8 C8         -8.1466  -10.1397   39.8823 C.ar      1 UNK        -0.0700 
      9 C9         -7.3674   -9.3585   38.9748 C.ar      1 UNK         0.2230 
     10 C10        -7.3504   -7.8541   39.0432 C.2       1 UNK         0.6150 
     11 C11       -10.8787   -7.5079   39.0464 C.3       1 UNK        -0.1200 
     12 C12       -11.0222   -6.0050   39.3456 C.3       1 UNK        -0.1200 
     13 C13        -9.6912   -7.7747   38.1017 C.3       1 UNK        -0.0500 
     14 C14        -8.5756   -5.7218   38.7956 C.3       1 UNK        -0.0500 
     15 C15        -9.6906   -5.3855   39.8066 C.3       1 UNK         0.1700 
     16 C16        -9.6287  -10.6412   41.6625 C.3       1 UNK         0.1100 
     17 C17        -8.9565   -3.3096   40.7246 C.3       1 UNK         0.1100 
     18 N18        -6.6831  -10.1147   38.1259 N.2       1 UNK        -0.5310 
     19 N19        -6.9839  -11.3919   38.4525 N.pl3     1 UNK         0.1189 
     20 N20        -8.4695   -7.1821   38.6702 N.am      1 UNK        -0.1400 
     21 O21        -6.3259   -7.2847   39.4258 O.2       1 UNK        -0.5000 
     22 O22        -8.9613   -9.6624   40.8823 O.3       1 UNK        -0.3000 
     23 O23        -9.8933   -3.9830   39.8963 O.3       1 UNK        -0.4000 
     24 H24        -4.8622  -15.4715   35.7520 H         1 UNK         0.1150 
     25 H25        -5.8128  -15.8409   38.0213 H         1 UNK         0.1150 
     26 H26        -4.8932  -13.1927   34.7492 H         1 UNK         0.1150 
     27 H27        -6.7856  -13.9583   39.2857 H         1 UNK         0.1150 
     28 H28        -5.8737  -11.2952   36.0007 H         1 UNK         0.1150 
     29 H29        -8.2403  -12.3634   39.9056 H         1 UNK         0.1350 
     30 H30       -10.7358   -8.0488   39.9820 H         1 UNK         0.0600 
     31 H31       -11.8010   -7.8909   38.6085 H         1 UNK         0.0600 
     32 H32       -11.3632   -5.4917   38.4457 H         1 UNK         0.0600 
     33 H33       -11.7916   -5.8416   40.1006 H         1 UNK         0.0600 
     34 H34        -9.6077   -8.8431   37.9040 H         1 UNK         0.0600 
     35 H35        -9.8811   -7.3183   37.1290 H         1 UNK         0.0600 
     36 H36        -8.8072   -5.2907   37.8211 H         1 UNK         0.0600 
     37 H37        -7.6345   -5.2653   39.1023 H         1 UNK         0.0600 
     38 H38        -9.4400   -5.7938   40.7881 H         1 UNK         0.0300 
     39 H39       -10.2388  -10.1472   42.4189 H         1 UNK         0.0300 
     40 H40        -8.9189  -11.2895   42.1783 H         1 UNK         0.0300 
     41 H41       -10.2911  -11.2534   41.0488 H         1 UNK         0.0300 
     42 H42        -9.2032   -2.2486   40.7612 H         1 UNK         0.0300 
     43 H43        -7.9377   -3.3981   40.3476 H         1 UNK         0.0300 
     44 H44        -8.9853   -3.6922   41.7457 H         1 UNK         0.0300 
@<TRIPOS>BOND
     1    1    2 ar   
     2    1    3 ar   
     3    1   24 1    
     4    2    4 ar   
     5    2   25 1    
     6    3    5 ar   
     7    3   26 1    
     8    4    7 ar   
     9    4   27 1    
    10    5    7 ar   
    11    5   28 1    
    12    6    8 ar   
    13    6   19 ar   
    14    6   29 1    
    15    7   19 1    
    16    8    9 ar   
    17    8   22 1    
    18    9   10 1    
    19    9   18 ar   
    20   10   20 am   BACKBONE|DICT|INTERRES
    21   10   21 2    
    22   11   12 1    
    23   11   13 1    
    24   11   30 1    
    25   11   31 1    
    26   12   15 1    
    27   12   32 1    
    28   12   33 1    
    29   13   20 1    
    30   13   34 1    
    31   13   35 1    
    32   14   15 1    
    33   14   20 1    
    34   14   36 1    
    35   14   37 1    
    36   15   23 1    
    37   15   38 1    
    38   16   22 1    
    39   16   39 1    
    40   16   40 1    
    41   16   41 1    
    42   17   23 1    
    43   17   42 1    
    44   17   43 1    
    45   17   44 1    
    46   18   19 ar   
@<TRIPOS>SUBSTRUCTURE
     1 UNK         1 GROUP             0       ****    0 ROOT    
@<TRIPOS>MOLECULE
ZINC76246556_25
44   46    1
SMALL
USER_CHARGES


@<TRIPOS>ATOM
      1 C1        -12.3940  -22.0060   35.9805 C.ar      1 UNK        -0.1150 
      2 C2        -13.5121  -22.4174   36.7301 C.ar      1 UNK        -0.1150 
      3 C3        -11.8962  -20.6975   36.1250 C.ar      1 UNK        -0.1150 
      4 C4        -14.1321  -21.5222   37.6247 C.ar      1 UNK        -0.1150 
      5 C5        -12.5150  -19.8026   37.0193 C.ar      1 UNK        -0.1150 
      6 C6        -15.1270  -19.5785   39.7212 C.ar      1 UNK         0.0360 
      7 C7        -13.6376  -20.2059   37.7796 C.ar      1 UNK         0.0731 
      8 C8        -15.4685  -18.3940   40.3189 C.ar      1 UNK        -0.0700 
      9 C9        -14.7455  -17.4180   39.5657 C.ar      1 UNK         0.2230 
     10 C10       -14.7993  -15.9522   39.9127 C.2       1 UNK         0.6150 
     11 C11       -17.4393  -15.0528   37.8965 C.3       1 UNK        -0.1200 
     12 C12       -17.4930  -13.5344   38.1494 C.3       1 UNK        -0.1200 
     13 C13       -17.2161  -15.8294   39.2078 C.3       1 UNK        -0.0500 
     14 C14       -16.1470  -13.9136   40.2543 C.3       1 UNK        -0.0500 
     15 C15       -16.2927  -13.0479   38.9913 C.3       1 UNK         0.1700 
     16 C16       -16.8394  -19.2942   42.0291 C.3       1 UNK         0.1100 
     17 C17       -16.1928  -10.7321   38.4301 C.3       1 UNK         0.1100 
     18 N18       -14.0233  -17.9717   38.5999 N.2       1 UNK        -0.5310 
     19 N19       -14.2592  -19.3008   38.6815 N.pl3     1 UNK         0.1189 
     20 N20       -15.9990  -15.3200   39.8588 N.am      1 UNK        -0.1400 
     21 O21       -13.7568  -15.3734   40.2268 O.2       1 UNK        -0.5000 
     22 O22       -16.3009  -18.1499   41.3864 O.3       1 UNK        -0.3000 
     23 O23       -16.4965  -11.7082   39.4150 O.3       1 UNK        -0.4000 
     24 H24       -11.9191  -22.6917   35.2934 H         1 UNK         0.1150 
     25 H25       -13.8967  -23.4206   36.6153 H         1 UNK         0.1150 
     26 H26       -11.0390  -20.3767   35.5509 H         1 UNK         0.1150 
     27 H27       -14.9947  -21.8596   38.1775 H         1 UNK         0.1150 
     28 H28       -12.1205  -18.8016   37.1221 H         1 UNK         0.1150 
     29 H29       -15.4241  -20.5886   39.9551 H         1 UNK         0.1350 
     30 H30       -18.3602  -15.3838   37.4155 H         1 UNK         0.0600 
     31 H31       -16.6297  -15.2773   37.1998 H         1 UNK         0.0600 
     32 H32       -17.5380  -13.0056   37.1976 H         1 UNK         0.0600 
     33 H33       -18.4168  -13.2956   38.6782 H         1 UNK         0.0600 
     34 H34       -18.0650  -15.6942   39.8796 H         1 UNK         0.0600 
     35 H35       -17.1852  -16.8950   38.9873 H         1 UNK         0.0600 
     36 H36       -15.3059  -13.5595   40.8533 H         1 UNK         0.0600 
     37 H37       -17.0258  -13.8058   40.8910 H         1 UNK         0.0600 
     38 H38       -15.3700  -13.1264   38.4123 H         1 UNK         0.0300 
     39 H39       -17.4624  -18.9798   42.8664 H         1 UNK         0.0300 
     40 H40       -16.0504  -19.9360   42.4236 H         1 UNK         0.0300 
     41 H41       -17.4642  -19.8738   41.3481 H         1 UNK         0.0300 
     42 H42       -16.8363  -10.8243   37.5553 H         1 UNK         0.0300 
     43 H43       -15.1525  -10.8029   38.1099 H         1 UNK         0.0300 
     44 H44       -16.3440   -9.7369   38.8484 H         1 UNK         0.0300 
@<TRIPOS>BOND
     1    1    2 ar   
     2    1    3 ar   
     3    1   24 1    
     4    2    4 ar   
     5    2   25 1    
     6    3    5 ar   
     7    3   26 1    
     8    4    7 ar   
     9    4   27 1    
    10    5    7 ar   
    11    5   28 1    
    12    6    8 ar   
    13    6   19 ar   
    14    6   29 1    
    15    7   19 1    
    16    8    9 ar   
    17    8   22 1    
    18    9   10 1    
    19    9   18 ar   
    20   10   20 am   BACKBONE|DICT|INTERRES
    21   10   21 2    
    22   11   12 1    
    23   11   13 1    
    24   11   30 1    
    25   11   31 1    
    26   12   15 1    
    27   12   32 1    
    28   12   33 1    
    29   13   20 1    
    30   13   34 1    
    31   13   35 1    
    32   14   15 1    
    33   14   20 1    
    34   14   36 1    
    35   14   37 1    
    36   15   23 1    
    37   15   38 1    
    38   16   22 1    
    39   16   39 1    
    40   16   40 1    
    41   16   41 1    
    42   17   23 1    
    43   17   42 1    
    44   17   43 1    
    45   17   44 1    
    46   18   19 ar   
@<TRIPOS>SUBSTRUCTURE
     1 UNK         1 GROUP             0       ****    0 ROOT    
@<TRIPOS>MOLECULE
ZINC76507357_131
47   49    1
SMALL
USER_CHARGES


@<TRIPOS>ATOM
      1 C1         -4.4351   -9.6966   34.7558 C.ar      1 UNK        -0.1150 
      2 C2         -5.7872   -9.9062   35.0893 C.ar      1 UNK        -0.1150 
      3 C3         -3.4322   -9.9014   35.7230 C.ar      1 UNK        -0.1150 
      4 C4         -6.4615   -4.4904   39.4032 C.ar      1 UNK        -0.1150 
      5 C5         -6.1366  -10.3196   36.3896 C.ar      1 UNK        -0.1150 
      6 C6         -3.7809  -10.3132   37.0238 C.ar      1 UNK        -0.1150 
      7 C7         -6.6933   -3.7024   38.2635 C.ar      1 UNK        -0.1150 
      8 C8         -8.0423   -6.1312   38.5636 C.ar      1 UNK        -0.1150 
      9 C9         -7.1200   -5.7240   39.5512 C.ar      1 UNK        -0.1150 
     10 C10        -5.1342  -10.5226   37.3622 C.ar      1 UNK        -0.1150 
     11 C11        -7.5909   -4.1099   37.2565 C.ar      1 UNK         0.0850 
     12 C12        -8.2813   -5.3527   37.4003 C.ar      1 UNK         0.0850 
     13 C13        -6.8778   -6.5507   40.7842 C.2       1 UNK         0.6150 
     14 C14        -5.9764  -10.1131   41.1682 C.3       1 UNK        -0.1200 
     15 C15        -6.2962   -8.7407   41.7668 C.3       1 UNK        -0.0500 
     16 C16        -6.2228   -8.5376   39.3776 C.3       1 UNK        -0.0500 
     17 C17        -5.4338   -9.7880   39.7806 C.3       1 UNK        -0.0600 
     18 C18        -8.6814   -3.3978   35.2003 C.3       1 UNK         0.1100 
     19 C19        -9.7765   -7.0451   36.5320 C.3       1 UNK         0.1100 
     20 C20        -5.5070  -10.9489   38.7711 C.3       1 UNK        -0.0050 
     21 N21        -6.5423   -7.8523   40.6310 N.am      1 UNK        -0.1400 
     22 O22        -6.9623   -6.0199   41.8910 O.2       1 UNK        -0.5000 
     23 O23        -7.6960   -3.2192   36.2048 O.3       1 UNK        -0.2850 
     24 O24        -9.1557   -5.7728   36.4170 O.3       1 UNK        -0.2850 
     25 H25        -4.1672   -9.3787   33.7586 H         1 UNK         0.1150 
     26 H26        -6.5559   -9.7483   34.3469 H         1 UNK         0.1150 
     27 H27        -2.3948   -9.7405   35.4674 H         1 UNK         0.1150 
     28 H28        -5.7755   -4.1478   40.1654 H         1 UNK         0.1150 
     29 H29        -7.1768  -10.4753   36.6362 H         1 UNK         0.1150 
     30 H30        -3.0059  -10.4629   37.7617 H         1 UNK         0.1150 
     31 H31        -6.1769   -2.7596   38.1574 H         1 UNK         0.1150 
     32 H32        -8.5678   -7.0576   38.7280 H         1 UNK         0.1150 
     33 H33        -5.2718  -10.6820   41.7759 H         1 UNK         0.0600 
     34 H34        -6.8938  -10.6980   41.0874 H         1 UNK         0.0600 
     35 H35        -7.1550   -8.7811   42.4392 H         1 UNK         0.0600 
     36 H36        -5.4455   -8.3610   42.3356 H         1 UNK         0.0600 
     37 H37        -5.6454   -7.9110   38.6948 H         1 UNK         0.0600 
     38 H38        -7.1492   -8.8210   38.8780 H         1 UNK         0.0600 
     39 H39        -4.3887   -9.4915   39.8900 H         1 UNK         0.0600 
     40 H40        -8.6723   -2.5329   34.5374 H         1 UNK         0.0300 
     41 H41        -9.6834   -3.4690   35.6252 H         1 UNK         0.0300 
     42 H42        -8.4729   -4.2757   34.5878 H         1 UNK         0.0300 
     43 H43       -10.3910   -7.2235   35.6496 H         1 UNK         0.0300 
     44 H44       -10.4326   -7.0920   37.4022 H         1 UNK         0.0300 
     45 H45        -9.0392   -7.8476   36.5856 H         1 UNK         0.0300 
     46 H46        -6.5131  -11.3703   38.7580 H         1 UNK         0.0600 
     47 H47        -4.8460  -11.7582   39.0840 H         1 UNK         0.0600 
@<TRIPOS>BOND
     1    1    2 ar   
     2    1    3 ar   
     3    1   25 1    
     4    2    5 ar   
     5    2   26 1    
     6    3    6 ar   
     7    3   27 1    
     8    4    7 ar   
     9    4    9 ar   
    10    4   28 1    
    11    5   10 ar   
    12    5   29 1    
    13    6   10 ar   
    14    6   30 1    
    15    7   11 ar   
    16    7   31 1    
    17    8    9 ar   
    18    8   12 ar   
    19    8   32 1    
    20    9   13 1    
    21   10   20 1    
    22   11   12 ar   
    23   11   23 1    
    24   12   24 1    
    25   13   21 am   BACKBONE|DICT|INTERRES
    26   13   22 2    
    27   14   15 1    
    28   14   17 1    
    29   14   33 1    
    30   14   34 1    
    31   15   21 1    
    32   15   35 1    
    33   15   36 1    
    34   16   17 1    
    35   16   21 1    
    36   16   37 1    
    37   16   38 1    
    38   17   20 1    
    39   17   39 1    
    40   18   23 1    
    41   18   40 1    
    42   18   41 1    
    43   18   42 1    
    44   19   24 1    
    45   19   43 1    
    46   19   44 1    
    47   19   45 1    
    48   20   46 1    
    49   20   47 1    
@<TRIPOS>SUBSTRUCTURE
     1 UNK         1 GROUP             0       ****    0 ROOT    
@<TRIPOS>MOLECULE
ZINC76516511_12
47   49    1
SMALL
USER_CHARGES


@<TRIPOS>ATOM
      1 C1        -11.0701  -20.3582   37.0047 C.ar      1 UNK        -0.1150 
      2 C2        -11.6672  -21.0831   39.2521 C.ar      1 UNK        -0.1150 
      3 C3        -10.4361  -21.5949   36.7745 C.ar      1 UNK        -0.1150 
      4 C4        -11.0339  -22.3201   39.0194 C.ar      1 UNK        -0.1150 
      5 C5        -16.6742  -14.8091   37.3166 C.ar      1 UNK        -0.1150 
      6 C6        -14.7261  -14.2958   38.6814 C.ar      1 UNK        -0.1150 
      7 C7        -16.7464  -12.9544   38.8914 C.ar      1 UNK        -0.1150 
      8 C8        -15.3559  -15.1071   37.7147 C.ar      1 UNK        -0.1150 
      9 C9        -11.6999  -20.0926   38.2423 C.ar      1 UNK        -0.1150 
     10 C10       -17.3849  -13.7454   37.9031 C.ar      1 UNK         0.0850 
     11 C11       -15.4093  -13.2215   39.2799 C.ar      1 UNK         0.0850 
     12 C12       -10.4198  -22.5772   37.7806 C.ar      1 UNK         0.2200 
     13 C13       -14.6216  -16.2386   37.0580 C.2       1 UNK         0.6150 
     14 C14       -13.4160  -18.6918   39.5927 C.3       1 UNK        -0.1200 
     15 C15       -13.1441  -18.1853   37.2853 C.3       1 UNK        -0.0500 
     16 C16       -12.3689  -18.7395   38.4835 C.3       1 UNK         0.0550 
     17 C17       -14.2507  -17.4397   39.2841 C.3       1 UNK         0.0100 
     18 C18       -15.7192  -17.6302   39.7158 C.3       1 UNK        -0.1800 
     19 C19       -19.4250  -12.4805   38.0233 C.3       1 UNK         0.1100 
     20 C20       -15.3406  -11.3632   40.8007 C.3       1 UNK         0.1100 
     21 N21       -14.0765  -17.2035   37.8386 N.am      1 UNK        -0.1400 
     22 O22       -14.5268  -16.2538   35.8310 O.2       1 UNK        -0.5000 
     23 O23       -18.6764  -13.5497   37.4640 O.3       1 UNK        -0.2850 
     24 O24       -14.7100  -12.4944   40.2185 O.3       1 UNK        -0.2850 
     25 F25        -9.8103  -23.7653   37.5593 F         1 UNK        -0.2200 
     26 H26       -11.0632  -19.6162   36.2200 H         1 UNK         0.1150 
     27 H27       -12.1217  -20.9097   40.2160 H         1 UNK         0.1150 
     28 H28        -9.9579  -21.7932   35.8268 H         1 UNK         0.1150 
     29 H29       -11.0143  -23.0750   39.7912 H         1 UNK         0.1150 
     30 H30       -17.1506  -15.4093   36.5538 H         1 UNK         0.1150 
     31 H31       -13.7007  -14.4854   38.9631 H         1 UNK         0.1150 
     32 H32       -17.2803  -12.1372   39.3463 H         1 UNK         0.1150 
     33 H33       -14.0516  -19.5769   39.5264 H         1 UNK         0.0600 
     34 H34       -12.9774  -18.6723   40.5911 H         1 UNK         0.0600 
     35 H35       -12.4753  -17.7501   36.5404 H         1 UNK         0.0600 
     36 H36       -13.7269  -18.9685   36.7974 H         1 UNK         0.0600 
     37 H37       -11.5774  -18.0309   38.7344 H         1 UNK         0.0600 
     38 H38       -13.8145  -16.6025   39.8290 H         1 UNK         0.0600 
     39 H39       -16.2132  -18.4002   39.1219 H         1 UNK         0.0600 
     40 H40       -16.3028  -16.7149   39.6227 H         1 UNK         0.0600 
     41 H41       -15.7784  -17.9328   40.7617 H         1 UNK         0.0600 
     42 H42       -18.9560  -11.5168   37.8201 H         1 UNK         0.0300 
     43 H43       -19.5529  -12.6021   39.0999 H         1 UNK         0.0300 
     44 H44       -20.4180  -12.4645   37.5745 H         1 UNK         0.0300 
     45 H45       -15.6126  -10.6254   40.0445 H         1 UNK         0.0300 
     46 H46       -14.6496  -10.8839   41.4942 H         1 UNK         0.0300 
     47 H47       -16.2291  -11.6482   41.3654 H         1 UNK         0.0300 
@<TRIPOS>BOND
     1    1    3 ar   
     2    1    9 ar   
     3    1   26 1    
     4    2    4 ar   
     5    2    9 ar   
     6    2   27 1    
     7    3   12 ar   
     8    3   28 1    
     9    4   12 ar   
    10    4   29 1    
    11    5    8 ar   
    12    5   10 ar   
    13    5   30 1    
    14    6    8 ar   
    15    6   11 ar   
    16    6   31 1    
    17    7   10 ar   
    18    7   11 ar   
    19    7   32 1    
    20    8   13 1    
    21    9   16 1    
    22   10   23 1    
    23   11   24 1    
    24   12   25 1    
    25   13   21 am   BACKBONE|DICT|INTERRES
    26   13   22 2    
    27   14   16 1    
    28   14   17 1    
    29   14   33 1    
    30   14   34 1    
    31   15   16 1    
    32   15   21 1    
    33   15   35 1    
    34   15   36 1    
    35   16   37 1    
    36   17   18 1    
    37   17   21 1    
    38   17   38 1    
    39   18   39 1    
    40   18   40 1    
    41   18   41 1    
    42   19   23 1    
    43   19   42 1    
    44   19   43 1    
    45   19   44 1    
    46   20   24 1    
    47   20   45 1    
    48   20   46 1    
    49   20   47 1    
@<TRIPOS>SUBSTRUCTURE
     1 UNK         1 GROUP             0       ****    0 ROOT    
@<TRIPOS>MOLECULE
ZINC76522388_33
50   52    1
SMALL
USER_CHARGES


@<TRIPOS>ATOM
      1 C1         -8.2514   -5.9623   38.4047 C.ar      1 UNK        -0.1150 
      2 C2         -4.6602   -9.4025   36.3877 C.ar      1 UNK        -0.1150 
      3 C3         -4.2516  -11.3357   37.8117 C.ar      1 UNK        -0.1150 
      4 C4         -8.6851   -5.0548   37.4212 C.ar      1 UNK        -0.1150 
      5 C5         -4.4143  -10.1915   35.2470 C.ar      1 UNK        -0.1150 
      6 C6         -4.0054  -12.1231   36.6695 C.ar      1 UNK        -0.1150 
      7 C7         -6.9063   -4.2103   39.4232 C.ar      1 UNK        -0.1150 
      8 C8         -7.3394   -5.5518   39.3998 C.ar      1 UNK        -0.1150 
      9 C9         -4.5925   -9.9690   37.6818 C.ar      1 UNK        -0.1150 
     10 C10        -8.2277   -3.7139   37.4254 C.ar      1 UNK         0.0850 
     11 C11        -7.3374   -3.2872   38.4380 C.ar      1 UNK         0.0850 
     12 C12        -4.0890  -11.5524   35.3871 C.ar      1 UNK         0.2200 
     13 C13        -6.8725   -6.4998   40.4705 C.2       1 UNK         0.6150 
     14 C14        -5.3121   -9.8431   40.1687 C.3       1 UNK        -0.1200 
     15 C15        -5.9525   -8.0521   38.7370 C.3       1 UNK        -0.0500 
     16 C16        -4.8525   -9.1034   38.9149 C.3       1 UNK         0.0550 
     17 C17        -5.9753   -8.7592   41.0297 C.3       1 UNK         0.0100 
     18 C18        -7.1323   -9.3203   41.8782 C.3       1 UNK        -0.1800 
     19 C19        -9.7766   -1.9377   34.5785 C.3       1 UNK        -0.1800 
     20 C20        -6.0868   -1.4903   39.4354 C.3       1 UNK         0.1100 
     21 C21        -9.5175   -3.1545   35.4687 C.3       1 UNK         0.1400 
     22 N22        -6.4008   -7.7121   40.0900 N.am      1 UNK        -0.1400 
     23 O23        -6.9154   -6.1416   41.6467 O.2       1 UNK        -0.5000 
     24 O24        -6.9348   -1.9681   38.4022 O.3       1 UNK        -0.2850 
     25 O25        -8.6085   -2.7734   36.4900 O.3       1 UNK        -0.2850 
     26 F26        -3.8532  -12.3098   34.2908 F         1 UNK        -0.2200 
     27 H27        -8.6280   -6.9750   38.3935 H         1 UNK         0.1150 
     28 H28        -4.8981   -8.3578   36.2533 H         1 UNK         0.1150 
     29 H29        -4.1720  -11.7974   38.7845 H         1 UNK         0.1150 
     30 H30        -9.3765   -5.4123   36.6743 H         1 UNK         0.1150 
     31 H31        -4.4712   -9.7556   34.2606 H         1 UNK         0.1150 
     32 H32        -3.7488  -13.1670   36.7726 H         1 UNK         0.1150 
     33 H33        -6.2338   -3.9129   40.2137 H         1 UNK         0.1150 
     34 H34        -6.0548  -10.5947   39.8947 H         1 UNK         0.0600 
     35 H35        -4.4983  -10.3527   40.6858 H         1 UNK         0.0600 
     36 H36        -5.5826   -7.1885   38.1815 H         1 UNK         0.0600 
     37 H37        -6.7979   -8.4750   38.1929 H         1 UNK         0.0600 
     38 H38        -3.9199   -8.5868   39.1494 H         1 UNK         0.0600 
     39 H39        -5.2227   -8.3245   41.6911 H         1 UNK         0.0600 
     40 H40        -7.9379   -9.7056   41.2523 H         1 UNK         0.0600 
     41 H41        -7.5574   -8.5590   42.5332 H         1 UNK         0.0600 
     42 H42        -6.7873  -10.1347   42.5160 H         1 UNK         0.0600 
     43 H43       -10.2014   -1.1166   35.1561 H         1 UNK         0.0600 
     44 H44        -8.8503   -1.5832   34.1260 H         1 UNK         0.0600 
     45 H45       -10.4727   -2.1800   33.7757 H         1 UNK         0.0600 
     46 H46        -5.8853   -0.4317   39.2727 H         1 UNK         0.0300 
     47 H47        -5.1285   -2.0112   39.4381 H         1 UNK         0.0300 
     48 H48        -6.5569   -1.5893   40.4147 H         1 UNK         0.0300 
     49 H49        -9.0998   -3.9647   34.8694 H         1 UNK         0.0300 
     50 H50       -10.4577   -3.4968   35.9037 H         1 UNK         0.0300 
@<TRIPOS>BOND
     1    1    4 ar   
     2    1    8 ar   
     3    1   27 1    
     4    2    5 ar   
     5    2    9 ar   
     6    2   28 1    
     7    3    6 ar   
     8    3    9 ar   
     9    3   29 1    
    10    4   10 ar   
    11    4   30 1    
    12    5   12 ar   
    13    5   31 1    
    14    6   12 ar   
    15    6   32 1    
    16    7    8 ar   
    17    7   11 ar   
    18    7   33 1    
    19    8   13 1    
    20    9   16 1    
    21   10   11 ar   
    22   10   25 1    
    23   11   24 1    
    24   12   26 1    
    25   13   22 am   BACKBONE|DICT|INTERRES
    26   13   23 2    
    27   14   16 1    
    28   14   17 1    
    29   14   34 1    
    30   14   35 1    
    31   15   16 1    
    32   15   22 1    
    33   15   36 1    
    34   15   37 1    
    35   16   38 1    
    36   17   18 1    
    37   17   22 1    
    38   17   39 1    
    39   18   40 1    
    40   18   41 1    
    41   18   42 1    
    42   19   21 1    
    43   19   43 1    
    44   19   44 1    
    45   19   45 1    
    46   20   24 1    
    47   20   46 1    
    48   20   47 1    
    49   20   48 1    
    50   21   25 1    
    51   21   49 1    
    52   21   50 1    
@<TRIPOS>SUBSTRUCTURE
     1 UNK         1 GROUP             0       ****    0 ROOT    
@<TRIPOS>MOLECULE
ZINC76522391_65
50   52    1
SMALL
USER_CHARGES


@<TRIPOS>ATOM
      1 C1         -8.0267   -5.6111   38.5563 C.ar      1 UNK        -0.1150 
      2 C2         -3.2266   -9.1531   37.1758 C.ar      1 UNK        -0.1150 
      3 C3         -4.8760  -10.9384   36.9852 C.ar      1 UNK        -0.1150 
      4 C4         -8.6477   -4.8170   37.5752 C.ar      1 UNK        -0.1150 
      5 C5         -2.5275   -9.6826   36.0731 C.ar      1 UNK        -0.1150 
      6 C6         -4.1748  -11.4667   35.8833 C.ar      1 UNK        -0.1150 
      7 C7         -6.3780   -3.8622   38.9228 C.ar      1 UNK        -0.1150 
      8 C8         -6.8703   -5.1492   39.2182 C.ar      1 UNK        -0.1150 
      9 C9         -4.4067   -9.7777   37.6385 C.ar      1 UNK        -0.1150 
     10 C10        -8.1383   -3.5337   37.2553 C.ar      1 UNK         0.0850 
     11 C11        -6.9997   -3.0508   37.9413 C.ar      1 UNK         0.0850 
     12 C12        -3.0011  -10.8392   35.4270 C.ar      1 UNK         0.2200 
     13 C13        -6.2038   -5.9664   40.2894 C.2       1 UNK         0.6150 
     14 C14        -4.3869   -9.1472   40.1323 C.3       1 UNK        -0.1200 
     15 C15        -5.6925   -7.7890   38.6382 C.3       1 UNK        -0.0500 
     16 C16        -5.1718   -9.2154   38.8290 C.3       1 UNK         0.0550 
     17 C17        -5.1549   -8.1125   40.9651 C.3       1 UNK         0.0100 
     18 C18        -6.1932   -8.7667   41.8954 C.3       1 UNK        -0.1800 
     19 C19       -11.1209   -2.8668   36.4474 C.3       1 UNK        -0.1800 
     20 C20        -5.4773   -1.2317   38.3425 C.3       1 UNK         0.1100 
     21 C21        -9.8612   -3.0928   35.5996 C.3       1 UNK         0.1400 
     22 N22        -5.8051   -7.2260   39.9884 N.am      1 UNK        -0.1400 
     23 O23        -6.0240   -5.4612   41.3968 O.2       1 UNK        -0.5000 
     24 O24        -6.5553   -1.7885   37.6056 O.3       1 UNK        -0.2850 
     25 O25        -8.6906   -2.6978   36.3042 O.3       1 UNK        -0.2850 
     26 F26        -2.3288  -11.3477   34.3683 F         1 UNK        -0.2200 
     27 H27        -8.4486   -6.5743   38.8043 H         1 UNK         0.1150 
     28 H28        -2.8495   -8.2653   37.6621 H         1 UNK         0.1150 
     29 H29        -5.7749  -11.4330   37.3240 H         1 UNK         0.1150 
     30 H30        -9.5251   -5.2135   37.0898 H         1 UNK         0.1150 
     31 H31        -1.6263   -9.2045   35.7186 H         1 UNK         0.1150 
     32 H32        -4.5336  -12.3545   35.3838 H         1 UNK         0.1150 
     33 H33        -5.5134   -3.5174   39.4695 H         1 UNK         0.1150 
     34 H34        -4.2867  -10.1184   40.6185 H         1 UNK         0.0600 
     35 H35        -3.3792   -8.7719   39.9496 H         1 UNK         0.0600 
     36 H36        -4.9854   -7.1774   38.0758 H         1 UNK         0.0600 
     37 H37        -6.6312   -7.8028   38.0868 H         1 UNK         0.0600 
     38 H38        -6.0379   -9.8548   39.0097 H         1 UNK         0.0600 
     39 H39        -4.4452   -7.5478   41.5739 H         1 UNK         0.0600 
     40 H40        -6.9420   -9.3280   41.3358 H         1 UNK         0.0600 
     41 H41        -6.7169   -8.0170   42.4904 H         1 UNK         0.0600 
     42 H42        -5.7145   -9.4545   42.5930 H         1 UNK         0.0600 
     43 H43       -11.1136   -3.4644   37.3580 H         1 UNK         0.0600 
     44 H44       -11.2027   -1.8204   36.7419 H         1 UNK         0.0600 
     45 H45       -12.0181   -3.1265   35.8858 H         1 UNK         0.0600 
     46 H46        -5.2825   -0.2210   37.9844 H         1 UNK         0.0300 
     47 H47        -4.5626   -1.8105   38.2095 H         1 UNK         0.0300 
     48 H48        -5.7137   -1.1641   39.4054 H         1 UNK         0.0300 
     49 H49        -9.9239   -2.4674   34.7087 H         1 UNK         0.0300 
     50 H50        -9.7916   -4.1162   35.2303 H         1 UNK         0.0300 
@<TRIPOS>BOND
     1    1    4 ar   
     2    1    8 ar   
     3    1   27 1    
     4    2    5 ar   
     5    2    9 ar   
     6    2   28 1    
     7    3    6 ar   
     8    3    9 ar   
     9    3   29 1    
    10    4   10 ar   
    11    4   30 1    
    12    5   12 ar   
    13    5   31 1    
    14    6   12 ar   
    15    6   32 1    
    16    7    8 ar   
    17    7   11 ar   
    18    7   33 1    
    19    8   13 1    
    20    9   16 1    
    21   10   11 ar   
    22   10   25 1    
    23   11   24 1    
    24   12   26 1    
    25   13   22 am   BACKBONE|DICT|INTERRES
    26   13   23 2    
    27   14   16 1    
    28   14   17 1    
    29   14   34 1    
    30   14   35 1    
    31   15   16 1    
    32   15   22 1    
    33   15   36 1    
    34   15   37 1    
    35   16   38 1    
    36   17   18 1    
    37   17   22 1    
    38   17   39 1    
    39   18   40 1    
    40   18   41 1    
    41   18   42 1    
    42   19   21 1    
    43   19   43 1    
    44   19   44 1    
    45   19   45 1    
    46   20   24 1    
    47   20   46 1    
    48   20   47 1    
    49   20   48 1    
    50   21   25 1    
    51   21   49 1    
    52   21   50 1    
@<TRIPOS>SUBSTRUCTURE
     1 UNK         1 GROUP             0       ****    0 ROOT    
@<TRIPOS>MOLECULE
ZINC76522502_19
47   49    1
SMALL
USER_CHARGES


@<TRIPOS>ATOM
      1 C1        -15.9684  -14.5016   38.3250 C.ar      1 UNK        -0.1150 
      2 C2        -12.4484  -18.0922   36.4477 C.ar      1 UNK        -0.1150 
      3 C3        -11.9465  -19.8796   38.0244 C.ar      1 UNK        -0.1150 
      4 C4        -16.4664  -13.6814   37.2992 C.ar      1 UNK        -0.1150 
      5 C5        -12.2537  -18.9845   35.3752 C.ar      1 UNK        -0.1150 
      6 C6        -11.7525  -20.7706   36.9504 C.ar      1 UNK        -0.1150 
      7 C7        -14.6282  -12.6428   39.1296 C.ar      1 UNK        -0.1150 
      8 C8        -15.0217  -13.9921   39.2353 C.ar      1 UNK        -0.1150 
      9 C9        -12.3079  -18.5332   37.7840 C.ar      1 UNK        -0.1150 
     10 C10       -16.0568  -12.3400   37.1639 C.ar      1 UNK         0.0850 
     11 C11       -15.1272  -11.7970   38.1037 C.ar      1 UNK         0.0850 
     12 C12       -11.9087  -20.3245   35.6259 C.ar      1 UNK         0.2200 
     13 C13       -14.4815  -14.8363   40.3576 C.2       1 UNK         0.6150 
     14 C14       -12.8893  -18.1769   40.2839 C.3       1 UNK        -0.1200 
     15 C15       -13.6387  -16.5385   38.7266 C.3       1 UNK        -0.0500 
     16 C16       -12.5133  -17.5558   38.9412 C.3       1 UNK         0.0550 
     17 C17       -13.5257  -17.0249   41.0734 C.3       1 UNK         0.0100 
     18 C18       -14.6301  -17.5187   42.0275 C.3       1 UNK        -0.1800 
     19 C19       -16.2835  -10.3469   35.7832 C.3       1 UNK         0.1100 
     20 C20       -13.8760   -9.9265   38.9902 C.3       1 UNK         0.1100 
     21 N21       -14.0157  -16.0749   40.0643 N.am      1 UNK        -0.1400 
     22 O22       -14.4600  -14.3711   41.4966 O.2       1 UNK        -0.5000 
     23 O23       -16.6411  -11.6829   36.0974 O.3       1 UNK        -0.2850 
     24 O24       -14.7376  -10.4760   38.0031 O.3       1 UNK        -0.2850 
     25 F25       -11.7225  -21.1814   34.5951 F         1 UNK        -0.2200 
     26 H26       -16.3223  -15.5188   38.4103 H         1 UNK         0.1150 
     27 H27       -12.7041  -17.0661   36.2286 H         1 UNK         0.1150 
     28 H28       -11.8115  -20.2470   39.0307 H         1 UNK         0.1150 
     29 H29       -17.1849  -14.0831   36.5997 H         1 UNK         0.1150 
     30 H30       -12.3660  -18.6443   34.3565 H         1 UNK         0.1150 
     31 H31       -11.4811  -21.7988   37.1380 H         1 UNK         0.1150 
     32 H32       -13.9280  -12.2791   39.8663 H         1 UNK         0.1150 
     33 H33       -13.6311  -18.9619   40.1258 H         1 UNK         0.0600 
     34 H34       -12.0385  -18.6228   40.8003 H         1 UNK         0.0600 
     35 H35       -13.3161  -15.7289   38.0697 H         1 UNK         0.0600 
     36 H36       -14.5064  -17.0218   38.2756 H         1 UNK         0.0600 
     37 H37       -11.5778  -17.0086   39.0715 H         1 UNK         0.0600 
     38 H38       -12.7484  -16.5220   41.6527 H         1 UNK         0.0600 
     39 H39       -15.4569  -17.9741   41.4816 H         1 UNK         0.0600 
     40 H40       -15.0385  -16.7043   42.6269 H         1 UNK         0.0600 
     41 H41       -14.2401  -18.2631   42.7220 H         1 UNK         0.0600 
     42 H42       -16.8131  -10.0413   34.8811 H         1 UNK         0.0300 
     43 H43       -15.2163  -10.2537   35.5786 H         1 UNK         0.0300 
     44 H44       -16.5737   -9.6574   36.5767 H         1 UNK         0.0300 
     45 H45       -14.3138   -9.9942   39.9871 H         1 UNK         0.0300 
     46 H46       -13.7145   -8.8701   38.7757 H         1 UNK         0.0300 
     47 H47       -12.9006  -10.4142   38.9850 H         1 UNK         0.0300 
@<TRIPOS>BOND
     1    1    4 ar   
     2    1    8 ar   
     3    1   26 1    
     4    2    5 ar   
     5    2    9 ar   
     6    2   27 1    
     7    3    6 ar   
     8    3    9 ar   
     9    3   28 1    
    10    4   10 ar   
    11    4   29 1    
    12    5   12 ar   
    13    5   30 1    
    14    6   12 ar   
    15    6   31 1    
    16    7    8 ar   
    17    7   11 ar   
    18    7   32 1    
    19    8   13 1    
    20    9   16 1    
    21   10   11 ar   
    22   10   23 1    
    23   11   24 1    
    24   12   25 1    
    25   13   21 am   BACKBONE|DICT|INTERRES
    26   13   22 2    
    27   14   16 1    
    28   14   17 1    
    29   14   33 1    
    30   14   34 1    
    31   15   16 1    
    32   15   21 1    
    33   15   35 1    
    34   15   36 1    
    35   16   37 1    
    36   17   18 1    
    37   17   21 1    
    38   17   38 1    
    39   18   39 1    
    40   18   40 1    
    41   18   41 1    
    42   19   23 1    
    43   19   42 1    
    44   19   43 1    
    45   19   44 1    
    46   20   24 1    
    47   20   45 1    
    48   20   46 1    
    49   20   47 1    
@<TRIPOS>SUBSTRUCTURE
     1 UNK         1 GROUP             0       ****    0 ROOT    
@<TRIPOS>MOLECULE
ZINC76523853_28
51   53    1
SMALL
USER_CHARGES


@<TRIPOS>ATOM
      1 C1         -3.2504   -9.1757   37.1076 C.ar      1 UNK        -0.1150 
      2 C2         -5.1264  -10.6944   36.7618 C.ar      1 UNK        -0.1150 
      3 C3         -2.6179   -9.6980   35.9621 C.ar      1 UNK        -0.1150 
      4 C4         -4.4926  -11.2146   35.6161 C.ar      1 UNK        -0.1150 
      5 C5         -6.6188   -3.9195   39.4160 C.ar      1 UNK        -0.1150 
      6 C6         -8.1243   -5.7155   38.7451 C.ar      1 UNK        -0.1150 
      7 C7         -7.0453   -5.2572   39.5294 C.ar      1 UNK        -0.1150 
      8 C8         -4.5097   -9.6713   37.5148 C.ar      1 UNK        -0.1150 
      9 C9         -7.2278   -3.0456   38.4843 C.ar      1 UNK         0.0850 
     10 C10        -8.7450   -4.8612   37.8027 C.ar      1 UNK         0.0850 
     11 C11        -8.2766   -3.5321   37.6721 C.ar      1 UNK         0.0850 
     12 C12        -3.2387  -10.7170   35.2164 C.ar      1 UNK         0.2200 
     13 C13        -6.3928   -6.1545   40.5395 C.2       1 UNK         0.6150 
     14 C14        -4.4379   -9.2826   40.0539 C.3       1 UNK        -0.1200 
     15 C15        -5.4949   -7.6169   38.6953 C.3       1 UNK        -0.0500 
     16 C16        -5.2049   -9.1159   38.7502 C.3       1 UNK         0.0550 
     17 C17        -5.0184   -8.1983   40.9772 C.3       1 UNK         0.0100 
     18 C18        -3.9223   -7.5854   41.8726 C.3       1 UNK        -0.1800 
     19 C19        -5.8702   -1.1865   39.1779 C.3       1 UNK         0.1100 
     20 C20       -10.3268   -6.5567   37.1574 C.3       1 UNK         0.1100 
     21 C21        -8.4519   -2.8992   35.4335 C.3       1 UNK         0.1100 
     22 N22        -5.6771   -7.2175   40.0940 N.am      1 UNK        -0.1400 
     23 O23        -6.5139   -5.8802   41.7315 O.2       1 UNK        -0.5000 
     24 O24        -6.8498   -1.7307   38.3067 O.3       1 UNK        -0.2850 
     25 O25        -9.7966   -5.2498   36.9979 O.3       1 UNK        -0.2850 
     26 O26        -8.8629   -2.6790   36.7723 O.3       1 UNK        -0.2850 
     27 F27        -2.6305  -11.2179   34.1162 F         1 UNK        -0.2200 
     28 H28        -2.7603   -8.3941   37.6700 H         1 UNK         0.1150 
     29 H29        -6.0880  -11.0889   37.0565 H         1 UNK         0.1150 
     30 H30        -1.6552   -9.3199   35.6511 H         1 UNK         0.1150 
     31 H31        -4.9643  -11.9972   35.0404 H         1 UNK         0.1150 
     32 H32        -5.8164   -3.5872   40.0572 H         1 UNK         0.1150 
     33 H33        -8.4612   -6.7308   38.8866 H         1 UNK         0.1150 
     34 H34        -4.5270  -10.2883   40.4666 H         1 UNK         0.0600 
     35 H35        -3.3761   -9.0959   39.8887 H         1 UNK         0.0600 
     36 H36        -4.6471   -7.0561   38.3004 H         1 UNK         0.0600 
     37 H37        -6.3437   -7.4281   38.0419 H         1 UNK         0.0600 
     38 H38        -6.1612   -9.6291   38.8678 H         1 UNK         0.0600 
     39 H39        -5.7906   -8.6440   41.6076 H         1 UNK         0.0600 
     40 H40        -3.1751   -7.0536   41.2828 H         1 UNK         0.0600 
     41 H41        -3.4068   -8.3609   42.4396 H         1 UNK         0.0600 
     42 H42        -4.3315   -6.8835   42.5994 H         1 UNK         0.0600 
     43 H43        -5.7258   -0.1324   38.9410 H         1 UNK         0.0300 
     44 H44        -4.9083   -1.6863   39.0573 H         1 UNK         0.0300 
     45 H45        -6.1844   -1.2497   40.2208 H         1 UNK         0.0300 
     46 H46       -11.1610   -6.6916   36.4690 H         1 UNK         0.0300 
     47 H47       -10.7061   -6.7124   38.1681 H         1 UNK         0.0300 
     48 H48        -9.5827   -7.3200   36.9265 H         1 UNK         0.0300 
     49 H49        -8.9053   -2.1488   34.7862 H         1 UNK         0.0300 
     50 H50        -8.7566   -3.8807   35.0699 H         1 UNK         0.0300 
     51 H51        -7.3686   -2.8126   35.3378 H         1 UNK         0.0300 
@<TRIPOS>BOND
     1    1    3 ar   
     2    1    8 ar   
     3    1   28 1    
     4    2    4 ar   
     5    2    8 ar   
     6    2   29 1    
     7    3   12 ar   
     8    3   30 1    
     9    4   12 ar   
    10    4   31 1    
    11    5    7 ar   
    12    5    9 ar   
    13    5   32 1    
    14    6    7 ar   
    15    6   10 ar   
    16    6   33 1    
    17    7   13 1    
    18    8   16 1    
    19    9   11 ar   
    20    9   24 1    
    21   10   11 ar   
    22   10   25 1    
    23   11   26 1    
    24   12   27 1    
    25   13   22 am   BACKBONE|DICT|INTERRES
    26   13   23 2    
    27   14   16 1    
    28   14   17 1    
    29   14   34 1    
    30   14   35 1    
    31   15   16 1    
    32   15   22 1    
    33   15   36 1    
    34   15   37 1    
    35   16   38 1    
    36   17   18 1    
    37   17   22 1    
    38   17   39 1    
    39   18   40 1    
    40   18   41 1    
    41   18   42 1    
    42   19   24 1    
    43   19   43 1    
    44   19   44 1    
    45   19   45 1    
    46   20   25 1    
    47   20   46 1    
    48   20   47 1    
    49   20   48 1    
    50   21   26 1    
    51   21   49 1    
    52   21   50 1    
    53   21   51 1    
@<TRIPOS>SUBSTRUCTURE
     1 UNK         1 GROUP             0       ****    0 ROOT    
@<TRIPOS>MOLECULE
ZINC76523858_27
51   53    1
SMALL
USER_CHARGES


@<TRIPOS>ATOM
      1 C1         -3.3477   -8.9507   36.9974 C.ar      1 UNK        -0.1150 
      2 C2         -5.0211  -10.7079   36.7590 C.ar      1 UNK        -0.1150 
      3 C3         -2.7441   -9.3635   35.7933 C.ar      1 UNK        -0.1150 
      4 C4         -4.4153  -11.1195   35.5555 C.ar      1 UNK        -0.1150 
      5 C5         -6.3458   -3.8960   39.4204 C.ar      1 UNK        -0.1150 
      6 C6         -8.0442   -5.6045   39.0959 C.ar      1 UNK        -0.1150 
      7 C7         -6.8252   -5.1947   39.6727 C.ar      1 UNK        -0.1150 
      8 C8         -4.4912   -9.6209   37.4879 C.ar      1 UNK        -0.1150 
      9 C9         -7.0379   -3.0134   38.5705 C.ar      1 UNK         0.0850 
     10 C10        -8.7514   -4.7490   38.2177 C.ar      1 UNK         0.0850 
     11 C11        -8.2331   -3.4598   37.9375 C.ar      1 UNK         0.0850 
     12 C12        -3.2777  -10.4474   35.0721 C.ar      1 UNK         0.2200 
     13 C13        -6.0737   -6.0911   40.6140 C.2       1 UNK         0.6150 
     14 C14        -4.2648   -9.2236   40.0212 C.3       1 UNK        -0.1200 
     15 C15        -5.6970   -7.7522   38.7702 C.3       1 UNK        -0.0500 
     16 C16        -5.1552   -9.1829   38.7859 C.3       1 UNK         0.0550 
     17 C17        -4.9680   -8.2803   41.0063 C.3       1 UNK         0.0100 
     18 C18        -5.9275   -9.0299   41.9494 C.3       1 UNK        -0.1800 
     19 C19        -7.2766   -0.6698   38.0546 C.3       1 UNK         0.1100 
     20 C20       -10.4978   -6.3762   37.8924 C.3       1 UNK         0.1100 
     21 C21        -8.7229   -3.0240   35.6940 C.3       1 UNK         0.1100 
     22 N22        -5.6966   -7.3145   40.1705 N.am      1 UNK        -0.1400 
     23 O23        -5.8168   -5.6869   41.7468 O.2       1 UNK        -0.5000 
     24 O24        -6.4554   -1.7732   38.4077 O.3       1 UNK        -0.2850 
     25 O25        -9.9398   -5.1018   37.6105 O.3       1 UNK        -0.2850 
     26 O26        -8.9086   -2.6570   37.0527 O.3       1 UNK        -0.2850 
     27 F27        -2.6977  -10.8430   33.9152 F         1 UNK        -0.2200 
     28 H28        -2.9267   -8.1165   37.5395 H         1 UNK         0.1150 
     29 H29        -5.8945  -11.2341   37.1163 H         1 UNK         0.1150 
     30 H30        -1.8707   -8.8509   35.4183 H         1 UNK         0.1150 
     31 H31        -4.8204  -11.9514   34.9985 H         1 UNK         0.1150 
     32 H32        -5.4339   -3.5624   39.8958 H         1 UNK         0.1150 
     33 H33        -8.4212   -6.5841   39.3457 H         1 UNK         0.1150 
     34 H34        -4.1176  -10.2337   40.4057 H         1 UNK         0.0600 
     35 H35        -3.2782   -8.8185   39.7928 H         1 UNK         0.0600 
     36 H36        -5.0428   -7.0843   38.2078 H         1 UNK         0.0600 
     37 H37        -6.6796   -7.7271   38.3015 H         1 UNK         0.0600 
     38 H38        -5.9994   -9.8478   38.9780 H         1 UNK         0.0600 
     39 H39        -4.2148   -7.7666   41.6081 H         1 UNK         0.0600 
     40 H40        -6.7173   -9.5429   41.4003 H         1 UNK         0.0600 
     41 H41        -6.4030   -8.3446   42.6526 H         1 UNK         0.0600 
     42 H42        -5.3933   -9.7757   42.5386 H         1 UNK         0.0600 
     43 H43        -6.7618    0.2548   38.3147 H         1 UNK         0.0300 
     44 H44        -8.2259   -0.6768   38.5927 H         1 UNK         0.0300 
     45 H45        -7.4642   -0.6433   36.9812 H         1 UNK         0.0300 
     46 H46       -11.4310   -6.4885   37.3406 H         1 UNK         0.0300 
     47 H47       -10.7282   -6.4852   38.9529 H         1 UNK         0.0300 
     48 H48        -9.8317   -7.1814   37.5798 H         1 UNK         0.0300 
     49 H49        -9.2124   -2.2928   35.0511 H         1 UNK         0.0300 
     50 H50        -9.1509   -4.0011   35.4695 H         1 UNK         0.0300 
     51 H51        -7.6634   -3.0406   35.4344 H         1 UNK         0.0300 
@<TRIPOS>BOND
     1    1    3 ar   
     2    1    8 ar   
     3    1   28 1    
     4    2    4 ar   
     5    2    8 ar   
     6    2   29 1    
     7    3   12 ar   
     8    3   30 1    
     9    4   12 ar   
    10    4   31 1    
    11    5    7 ar   
    12    5    9 ar   
    13    5   32 1    
    14    6    7 ar   
    15    6   10 ar   
    16    6   33 1    
    17    7   13 1    
    18    8   16 1    
    19    9   11 ar   
    20    9   24 1    
    21   10   11 ar   
    22   10   25 1    
    23   11   26 1    
    24   12   27 1    
    25   13   22 am   BACKBONE|DICT|INTERRES
    26   13   23 2    
    27   14   16 1    
    28   14   17 1    
    29   14   34 1    
    30   14   35 1    
    31   15   16 1    
    32   15   22 1    
    33   15   36 1    
    34   15   37 1    
    35   16   38 1    
    36   17   18 1    
    37   17   22 1    
    38   17   39 1    
    39   18   40 1    
    40   18   41 1    
    41   18   42 1    
    42   19   24 1    
    43   19   43 1    
    44   19   44 1    
    45   19   45 1    
    46   20   25 1    
    47   20   46 1    
    48   20   47 1    
    49   20   48 1    
    50   21   26 1    
    51   21   49 1    
    52   21   50 1    
    53   21   51 1    
@<TRIPOS>SUBSTRUCTURE
     1 UNK         1 GROUP             0       ****    0 ROOT    
@<TRIPOS>MOLECULE
ZINC76523861_26
51   53    1
SMALL
USER_CHARGES


@<TRIPOS>ATOM
      1 C1         -4.4018   -9.0124   36.3224 C.ar      1 UNK        -0.1150 
      2 C2         -4.3255  -11.0512   37.6536 C.ar      1 UNK        -0.1150 
      3 C3         -4.3385   -9.7798   35.1429 C.ar      1 UNK        -0.1150 
      4 C4         -4.2623  -11.8170   36.4726 C.ar      1 UNK        -0.1150 
      5 C5         -6.6483   -3.9112   39.6532 C.ar      1 UNK        -0.1150 
      6 C6         -7.8927   -5.6645   38.5197 C.ar      1 UNK        -0.1150 
      7 C7         -7.0207   -5.2632   39.5515 C.ar      1 UNK        -0.1150 
      8 C8         -4.4066   -9.6403   37.5891 C.ar      1 UNK        -0.1150 
      9 C9         -7.0882   -2.9679   38.6956 C.ar      1 UNK         0.0850 
     10 C10        -8.3502   -4.7424   37.5460 C.ar      1 UNK         0.0850 
     11 C11        -7.9160   -3.3868   37.6271 C.ar      1 UNK         0.0850 
     12 C12        -4.2712  -11.1825   35.2175 C.ar      1 UNK         0.2200 
     13 C13        -6.5387   -6.2391   40.5866 C.2       1 UNK         0.6150 
     14 C14        -4.8871   -9.5034   40.1406 C.3       1 UNK        -0.1200 
     15 C15        -5.4680   -7.6296   38.7855 C.3       1 UNK        -0.0500 
     16 C16        -4.4689   -8.7887   38.8562 C.3       1 UNK         0.0550 
     17 C17        -5.3314   -8.3668   41.0699 C.3       1 UNK         0.0100 
     18 C18        -4.1674   -7.8651   41.9485 C.3       1 UNK        -0.1800 
     19 C19        -5.9862   -1.1568   39.8376 C.3       1 UNK         0.1100 
     20 C20        -9.7036   -6.4470   36.4930 C.3       1 UNK         0.1100 
     21 C21        -8.4693   -2.7390   35.3715 C.3       1 UNK         0.1100 
     22 N22        -5.8313   -7.3177   40.1708 N.am      1 UNK        -0.1400 
     23 O23        -6.7704   -6.0110   41.7726 O.2       1 UNK        -0.5000 
     24 O24        -6.7383   -1.6330   38.7319 O.3       1 UNK        -0.2850 
     25 O25        -9.2226   -5.1113   36.5405 O.3       1 UNK        -0.2850 
     26 O26        -8.2833   -2.3971   36.7366 O.3       1 UNK        -0.2850 
     27 F27        -4.2116  -11.9198   34.0843 F         1 UNK        -0.2200 
     28 H28        -4.4442   -7.9361   36.2420 H         1 UNK         0.1150 
     29 H29        -4.3074  -11.5652   38.6031 H         1 UNK         0.1150 
     30 H30        -4.3379   -9.2959   34.1774 H         1 UNK         0.1150 
     31 H31        -4.2041  -12.8942   36.5247 H         1 UNK         0.1150 
     32 H32        -6.0135   -3.6228   40.4776 H         1 UNK         0.1150 
     33 H33        -8.2145   -6.6935   38.5065 H         1 UNK         0.1150 
     34 H34        -5.7467  -10.1465   39.9436 H         1 UNK         0.0600 
     35 H35        -4.0972  -10.1272   40.5611 H         1 UNK         0.0600 
     36 H36        -5.0520   -6.7682   38.2604 H         1 UNK         0.0600 
     37 H37        -6.3636   -7.9553   38.2561 H         1 UNK         0.0600 
     38 H38        -3.4716   -8.3729   39.0106 H         1 UNK         0.0600 
     39 H39        -6.1392   -8.7148   41.7173 H         1 UNK         0.0600 
     40 H40        -3.3436   -7.4781   41.3483 H         1 UNK         0.0600 
     41 H41        -3.7743   -8.6689   42.5716 H         1 UNK         0.0600 
     42 H42        -4.4873   -7.0694   42.6221 H         1 UNK         0.0600 
     43 H43        -5.8372   -0.0822   39.7332 H         1 UNK         0.0300 
     44 H44        -5.0008   -1.6224   39.8805 H         1 UNK         0.0300 
     45 H45        -6.5101   -1.3268   40.7793 H         1 UNK         0.0300 
     46 H46       -10.3876   -6.5511   35.6508 H         1 UNK         0.0300 
     47 H47       -10.2561   -6.7051   37.3977 H         1 UNK         0.0300 
     48 H48        -8.8909   -7.1595   36.3455 H         1 UNK         0.0300 
     49 H49        -8.2949   -1.8554   34.7581 H         1 UNK         0.0300 
     50 H50        -9.4921   -3.0664   35.1832 H         1 UNK         0.0300 
     51 H51        -7.7723   -3.5103   35.0395 H         1 UNK         0.0300 
@<TRIPOS>BOND
     1    1    3 ar   
     2    1    8 ar   
     3    1   28 1    
     4    2    4 ar   
     5    2    8 ar   
     6    2   29 1    
     7    3   12 ar   
     8    3   30 1    
     9    4   12 ar   
    10    4   31 1    
    11    5    7 ar   
    12    5    9 ar   
    13    5   32 1    
    14    6    7 ar   
    15    6   10 ar   
    16    6   33 1    
    17    7   13 1    
    18    8   16 1    
    19    9   11 ar   
    20    9   24 1    
    21   10   11 ar   
    22   10   25 1    
    23   11   26 1    
    24   12   27 1    
    25   13   22 am   BACKBONE|DICT|INTERRES
    26   13   23 2    
    27   14   16 1    
    28   14   17 1    
    29   14   34 1    
    30   14   35 1    
    31   15   16 1    
    32   15   22 1    
    33   15   36 1    
    34   15   37 1    
    35   16   38 1    
    36   17   18 1    
    37   17   22 1    
    38   17   39 1    
    39   18   40 1    
    40   18   41 1    
    41   18   42 1    
    42   19   24 1    
    43   19   43 1    
    44   19   44 1    
    45   19   45 1    
    46   20   25 1    
    47   20   46 1    
    48   20   47 1    
    49   20   48 1    
    50   21   26 1    
    51   21   49 1    
    52   21   50 1    
    53   21   51 1    
@<TRIPOS>SUBSTRUCTURE
     1 UNK         1 GROUP             0       ****    0 ROOT    
@<TRIPOS>MOLECULE
ZINC76523866_22
51   53    1
SMALL
USER_CHARGES


@<TRIPOS>ATOM
      1 C1         -4.4519   -9.0896   36.3359 C.ar      1 UNK        -0.1150 
      2 C2         -3.9213  -11.0028   37.7471 C.ar      1 UNK        -0.1150 
      3 C3         -4.2530   -9.8819   35.1880 C.ar      1 UNK        -0.1150 
      4 C4         -3.7233  -11.7935   36.5979 C.ar      1 UNK        -0.1150 
      5 C5         -8.0927   -5.8297   38.5761 C.ar      1 UNK        -0.1150 
      6 C6         -6.7872   -3.9783   39.4749 C.ar      1 UNK        -0.1150 
      7 C7         -7.1359   -5.3438   39.4937 C.ar      1 UNK        -0.1150 
      8 C8         -4.2976   -9.6442   37.6276 C.ar      1 UNK        -0.1150 
      9 C9         -8.6621   -4.9728   37.6042 C.ar      1 UNK         0.0850 
     10 C10        -7.3495   -3.1013   38.5171 C.ar      1 UNK         0.0850 
     11 C11        -8.2741   -3.6136   37.5797 C.ar      1 UNK         0.0850 
     12 C12        -3.8906  -11.2345   35.3184 C.ar      1 UNK         0.2200 
     13 C13        -6.5326   -6.2442   40.5357 C.2       1 UNK         0.6150 
     14 C14        -4.8229   -9.5072   40.1638 C.3       1 UNK        -0.1200 
     15 C15        -5.6652   -7.7789   38.7585 C.3       1 UNK        -0.0500 
     16 C16        -4.5032   -8.7712   38.8653 C.3       1 UNK         0.0550 
     17 C17        -5.4679   -8.4391   41.0574 C.3       1 UNK         0.0100 
     18 C18        -6.5195   -9.0404   42.0093 C.3       1 UNK        -0.1800 
     19 C19       -10.0487   -6.7276   36.7164 C.3       1 UNK         0.1100 
     20 C20        -6.2081   -1.1945   39.4334 C.3       1 UNK         0.1100 
     21 C21        -8.1443   -2.7805   35.4112 C.3       1 UNK         0.1100 
     22 N22        -6.0239   -7.4358   40.1376 N.am      1 UNK        -0.1400 
     23 O23        -6.5023   -5.8657   41.7056 O.2       1 UNK        -0.5000 
     24 O24        -9.5851   -5.3869   36.6657 O.3       1 UNK        -0.2850 
     25 O25        -7.0417   -1.7591   38.4328 O.3       1 UNK        -0.2850 
     26 O26        -8.8250   -2.7664   36.6536 O.3       1 UNK        -0.2850 
     27 F27        -3.6989  -11.9949   34.2156 F         1 UNK        -0.2200 
     28 H28        -4.7205   -8.0513   36.2092 H         1 UNK         0.1150 
     29 H29        -3.7765  -11.4564   38.7161 H         1 UNK         0.1150 
     30 H30        -4.3739   -9.4548   34.2035 H         1 UNK         0.1150 
     31 H31        -3.4391  -12.8309   36.6934 H         1 UNK         0.1150 
     32 H32        -8.3812   -6.8674   38.6373 H         1 UNK         0.1150 
     33 H33        -6.0779   -3.6269   40.2095 H         1 UNK         0.1150 
     34 H34        -5.5475  -10.2989   39.9646 H         1 UNK         0.0600 
     35 H35        -3.9452   -9.9666   40.6202 H         1 UNK         0.0600 
     36 H36        -5.3840   -6.9089   38.1626 H         1 UNK         0.0600 
     37 H37        -6.5265   -8.2542   38.2875 H         1 UNK         0.0600 
     38 H38        -3.5823   -8.2048   39.0162 H         1 UNK         0.0600 
     39 H39        -4.6871   -7.9522   41.6458 H         1 UNK         0.0600 
     40 H40        -7.3511   -9.4824   41.4598 H         1 UNK         0.0600 
     41 H41        -6.9304   -8.2882   42.6837 H         1 UNK         0.0600 
     42 H42        -6.0800   -9.8210   42.6309 H         1 UNK         0.0600 
     43 H43       -10.7877   -6.8820   35.9304 H         1 UNK         0.0300 
     44 H44       -10.5321   -6.9463   37.6695 H         1 UNK         0.0300 
     45 H45        -9.2376   -7.4375   36.5490 H         1 UNK         0.0300 
     46 H46        -6.1147   -0.1227   39.2594 H         1 UNK         0.0300 
     47 H47        -5.2053   -1.6221   39.4040 H         1 UNK         0.0300 
     48 H48        -6.6314   -1.3303   40.4296 H         1 UNK         0.0300 
     49 H49        -8.6136   -2.0710   34.7300 H         1 UNK         0.0300 
     50 H50        -8.1816   -3.7669   34.9468 H         1 UNK         0.0300 
     51 H51        -7.0998   -2.4894   35.5318 H         1 UNK         0.0300 
@<TRIPOS>BOND
     1    1    3 ar   
     2    1    8 ar   
     3    1   28 1    
     4    2    4 ar   
     5    2    8 ar   
     6    2   29 1    
     7    3   12 ar   
     8    3   30 1    
     9    4   12 ar   
    10    4   31 1    
    11    5    7 ar   
    12    5    9 ar   
    13    5   32 1    
    14    6    7 ar   
    15    6   10 ar   
    16    6   33 1    
    17    7   13 1    
    18    8   16 1    
    19    9   11 ar   
    20    9   24 1    
    21   10   11 ar   
    22   10   25 1    
    23   11   26 1    
    24   12   27 1    
    25   13   22 am   BACKBONE|DICT|INTERRES
    26   13   23 2    
    27   14   16 1    
    28   14   17 1    
    29   14   34 1    
    30   14   35 1    
    31   15   16 1    
    32   15   22 1    
    33   15   36 1    
    34   15   37 1    
    35   16   38 1    
    36   17   18 1    
    37   17   22 1    
    38   17   39 1    
    39   18   40 1    
    40   18   41 1    
    41   18   42 1    
    42   19   24 1    
    43   19   43 1    
    44   19   44 1    
    45   19   45 1    
    46   20   25 1    
    47   20   46 1    
    48   20   47 1    
    49   20   48 1    
    50   21   26 1    
    51   21   49 1    
    52   21   50 1    
    53   21   51 1    
@<TRIPOS>SUBSTRUCTURE
     1 UNK         1 GROUP             0       ****    0 ROOT    
@<TRIPOS>MOLECULE
ZINC76918065_85
45   47    1
SMALL
USER_CHARGES


@<TRIPOS>ATOM
      1 C1        -13.6669  -17.7796   37.0696 C.ar      1 UNK        -0.1150 
      2 C2        -12.9631  -17.5483   38.2674 C.ar      1 UNK        -0.1150 
      3 C3        -12.9702  -17.8586   35.8485 C.ar      1 UNK        -0.1150 
      4 C4        -14.0852  -13.6358   38.2621 C.ar      1 UNK        -0.1150 
      5 C5        -13.8124  -11.7878   39.8154 C.ar      1 UNK        -0.1150 
      6 C6        -10.8700  -17.4772   37.0273 C.ar      1 UNK        -0.1150 
      7 C7        -13.5165  -13.1124   39.4426 C.ar      1 UNK        -0.1150 
      8 C8        -11.5607  -17.3854   38.2555 C.ar      1 UNK        -0.1150 
      9 C9        -14.9092  -12.8473   37.4382 C.ar      1 UNK         0.0850 
     10 C10       -14.6346  -10.9748   39.0136 C.ar      1 UNK         0.0850 
     11 C11       -15.1545  -11.4900   37.7930 C.ar      1 UNK         0.0850 
     12 C12       -11.5707  -17.7107   35.8283 C.ar      1 UNK         0.1800 
     13 C13       -12.6492  -13.9612   40.3227 C.2       1 UNK         0.6150 
     14 C14        -9.6983  -16.1120   39.5955 C.3       1 UNK        -0.1200 
     15 C15       -10.8254  -17.1111   39.5357 C.3       1 UNK         0.0550 
     16 C16       -11.0138  -15.8000   40.2767 C.3       1 UNK         0.0625 
     17 C17       -16.6335  -13.0526   35.7719 C.3       1 UNK         0.1100 
     18 C18       -16.1652   -9.1658   39.3166 C.3       1 UNK         0.1100 
     19 C19       -14.9816   -9.8828   36.1243 C.3       1 UNK         0.1100 
     20 N20       -11.8683  -14.8302   39.6742 N.am      1 UNK        -0.4225 
     21 O21       -12.6448  -13.8225   41.5437 O.2       1 UNK        -0.5000 
     22 O22       -15.3885  -13.4768   36.3085 O.3       1 UNK        -0.2850 
     23 O23       -14.8538   -9.6935   39.4684 O.3       1 UNK        -0.2850 
     24 O24       -15.8409  -10.6655   36.9394 O.3       1 UNK        -0.2850 
     25 Cl25      -10.7140  -17.8088   34.3351 Cl        1 UNK        -0.1800 
     26 H26       -14.7411  -17.8962   37.0863 H         1 UNK         0.1150 
     27 H27       -13.5058  -17.4862   39.2008 H         1 UNK         0.1150 
     28 H28       -13.5063  -18.0351   34.9275 H         1 UNK         0.1150 
     29 H29       -13.9076  -14.6621   37.9750 H         1 UNK         0.1150 
     30 H30       -13.4066  -11.3874   40.7342 H         1 UNK         0.1150 
     31 H31        -9.7959  -17.3658   36.9959 H         1 UNK         0.1150 
     32 H32        -8.8551  -16.3385   40.2453 H         1 UNK         0.0600 
     33 H33        -9.4516  -15.5522   38.6953 H         1 UNK         0.0600 
     34 H34       -10.7283  -18.0179   40.1307 H         1 UNK         0.0600 
     35 H35       -11.0042  -15.8490   41.3655 H         1 UNK         0.0600 
     36 H36       -17.0654  -13.8655   35.1886 H         1 UNK         0.0300 
     37 H37       -16.5058  -12.2050   35.0987 H         1 UNK         0.0300 
     38 H38       -17.3513  -12.7927   36.5515 H         1 UNK         0.0300 
     39 H39       -16.9341   -9.9376   39.3809 H         1 UNK         0.0300 
     40 H40       -16.2715   -8.6341   38.3714 H         1 UNK         0.0300 
     41 H41       -16.3548   -8.4477   40.1142 H         1 UNK         0.0300 
     42 H42       -15.5776   -9.2666   35.4518 H         1 UNK         0.0300 
     43 H43       -14.3341  -10.5152   35.5149 H         1 UNK         0.0300 
     44 H44       -14.3562   -9.2184   36.7221 H         1 UNK         0.0300 
     45 H45       -11.9428  -14.8470   38.6688 H         1 UNK         0.3000 
@<TRIPOS>BOND
     1    1    2 ar   
     2    1    3 ar   
     3    1   26 1    
     4    2    8 ar   
     5    2   27 1    
     6    3   12 ar   
     7    3   28 1    
     8    4    7 ar   
     9    4    9 ar   
    10    4   29 1    
    11    5    7 ar   
    12    5   10 ar   
    13    5   30 1    
    14    6    8 ar   
    15    6   12 ar   
    16    6   31 1    
    17    7   13 1    
    18    8   15 1    
    19    9   11 ar   
    20    9   22 1    
    21   10   11 ar   
    22   10   23 1    
    23   11   24 1    
    24   12   25 1    
    25   13   20 am   BACKBONE|DICT|INTERRES
    26   13   21 2    
    27   14   15 1    
    28   14   16 1    
    29   14   32 1    
    30   14   33 1    
    31   15   16 1    
    32   15   34 1    
    33   16   20 1    
    34   16   35 1    
    35   17   22 1    
    36   17   36 1    
    37   17   37 1    
    38   17   38 1    
    39   18   23 1    
    40   18   39 1    
    41   18   40 1    
    42   18   41 1    
    43   19   24 1    
    44   19   42 1    
    45   19   43 1    
    46   19   44 1    
    47   20   45 1    
@<TRIPOS>SUBSTRUCTURE
     1 UNK         1 GROUP             0       ****    0 ROOT    
@<TRIPOS>MOLECULE
ZINC76918070_40
45   47    1
SMALL
USER_CHARGES


@<TRIPOS>ATOM
      1 C1        -11.7089  -17.3647   35.9536 C.ar      1 UNK        -0.1150 
      2 C2        -11.7519  -17.5557   37.3489 C.ar      1 UNK        -0.1150 
      3 C3        -11.0314  -16.2539   35.4151 C.ar      1 UNK        -0.1150 
      4 C4        -14.3886  -12.8601   38.7289 C.ar      1 UNK        -0.1150 
      5 C5        -12.8679  -11.1694   39.5785 C.ar      1 UNK        -0.1150 
      6 C6        -10.4367  -15.5326   37.6660 C.ar      1 UNK        -0.1150 
      7 C7        -13.3169  -12.5015   39.5711 C.ar      1 UNK        -0.1150 
      8 C8        -11.1225  -16.6372   38.2167 C.ar      1 UNK        -0.1150 
      9 C9        -14.9826  -11.9079   37.8650 C.ar      1 UNK         0.0850 
     10 C10       -13.4367  -10.1966   38.7367 C.ar      1 UNK         0.0850 
     11 C11       -14.4814  -10.5758   37.8416 C.ar      1 UNK         0.0850 
     12 C12       -10.3934  -15.3382   36.2721 C.ar      1 UNK         0.1800 
     13 C13       -12.6814  -13.5042   40.4864 C.2       1 UNK         0.6150 
     14 C14       -12.4547  -17.2155   40.3973 C.3       1 UNK        -0.1200 
     15 C15       -11.1745  -16.8256   39.7050 C.3       1 UNK         0.0550 
     16 C16       -11.8846  -15.8279   40.6019 C.3       1 UNK         0.0625 
     17 C17       -16.6430  -13.5032   37.1361 C.3       1 UNK         0.1100 
     18 C18       -13.5558   -7.8035   38.3511 C.3       1 UNK         0.1100 
     19 C19       -15.0602  -10.0056   35.6034 C.3       1 UNK         0.1100 
     20 N20       -12.5481  -14.7318   39.9742 N.am      1 UNK        -0.4225 
     21 O21       -12.2582  -13.1823   41.5939 O.2       1 UNK        -0.5000 
     22 O22       -16.0521  -12.2153   37.0468 O.3       1 UNK        -0.2850 
     23 O23       -12.8745   -8.9402   38.8582 O.3       1 UNK        -0.2850 
     24 O24       -15.0159   -9.6452   36.9780 O.3       1 UNK        -0.2850 
     25 Cl25       -9.5654  -13.9753   35.6170 Cl        1 UNK        -0.1800 
     26 H26       -12.1937  -18.0711   35.2954 H         1 UNK         0.1150 
     27 H27       -12.2713  -18.4141   37.7515 H         1 UNK         0.1150 
     28 H28       -10.9965  -16.1035   34.3460 H         1 UNK         0.1150 
     29 H29       -14.7541  -13.8739   38.7685 H         1 UNK         0.1150 
     30 H30       -12.0660  -10.8825   40.2448 H         1 UNK         0.1150 
     31 H31        -9.9439  -14.8224   38.3150 H         1 UNK         0.1150 
     32 H32       -13.3588  -17.3075   39.7984 H         1 UNK         0.0600 
     33 H33       -12.3859  -17.9004   41.2404 H         1 UNK         0.0600 
     34 H34       -10.2482  -17.2643   40.0731 H         1 UNK         0.0600 
     35 H35       -11.4338  -15.6448   41.5774 H         1 UNK         0.0600 
     36 H36       -17.4951  -13.5532   36.4585 H         1 UNK         0.0300 
     37 H37       -17.0121  -13.7047   38.1428 H         1 UNK         0.0300 
     38 H38       -15.9425  -14.2852   36.8406 H         1 UNK         0.0300 
     39 H39       -14.6055   -7.7914   38.6482 H         1 UNK         0.0300 
     40 H40       -13.4772   -7.7463   37.2652 H         1 UNK         0.0300 
     41 H41       -13.0937   -6.9033   38.7552 H         1 UNK         0.0300 
     42 H42       -14.8992   -9.1158   34.9952 H         1 UNK         0.0300 
     43 H43       -16.0370  -10.4088   35.3363 H         1 UNK         0.0300 
     44 H44       -14.2908  -10.7318   35.3353 H         1 UNK         0.0300 
     45 H45       -12.8448  -14.8618   39.0198 H         1 UNK         0.3000 
@<TRIPOS>BOND
     1    1    2 ar   
     2    1    3 ar   
     3    1   26 1    
     4    2    8 ar   
     5    2   27 1    
     6    3   12 ar   
     7    3   28 1    
     8    4    7 ar   
     9    4    9 ar   
    10    4   29 1    
    11    5    7 ar   
    12    5   10 ar   
    13    5   30 1    
    14    6    8 ar   
    15    6   12 ar   
    16    6   31 1    
    17    7   13 1    
    18    8   15 1    
    19    9   11 ar   
    20    9   22 1    
    21   10   11 ar   
    22   10   23 1    
    23   11   24 1    
    24   12   25 1    
    25   13   20 am   BACKBONE|DICT|INTERRES
    26   13   21 2    
    27   14   15 1    
    28   14   16 1    
    29   14   32 1    
    30   14   33 1    
    31   15   16 1    
    32   15   34 1    
    33   16   20 1    
    34   16   35 1    
    35   17   22 1    
    36   17   36 1    
    37   17   37 1    
    38   17   38 1    
    39   18   23 1    
    40   18   39 1    
    41   18   40 1    
    42   18   41 1    
    43   19   24 1    
    44   19   42 1    
    45   19   43 1    
    46   19   44 1    
    47   20   45 1    
@<TRIPOS>SUBSTRUCTURE
     1 UNK         1 GROUP             0       ****    0 ROOT    
@<TRIPOS>MOLECULE
ZINC77157254_186
44   47    1
SMALL
USER_CHARGES


@<TRIPOS>ATOM
      1 C1         -2.1365  -11.9262   33.8054 C.ar      1 UNK         0.0055 
      2 C2         -3.1407  -12.9131   33.7924 C.ar      1 UNK        -0.3011 
      3 C3         -6.6042   -3.3252   39.4474 C.ar      1 UNK        -0.1150 
      4 C4         -2.0948  -10.9764   34.8452 C.ar      1 UNK        -0.4461 
      5 C5         -7.4310   -2.3319   38.8964 C.ar      1 UNK        -0.1150 
      6 C6         -4.1037  -12.9509   34.8187 C.ar      1 UNK        -0.1407 
      7 C7         -7.6950   -4.9841   38.0469 C.ar      1 UNK        -0.1150 
      8 C8         -6.7327   -4.6657   39.0338 C.ar      1 UNK        -0.1150 
      9 C9         -3.0458  -10.9869   35.8879 C.ar      1 UNK         0.6314 
     10 C10        -8.4051   -2.6434   37.9287 C.ar      1 UNK         0.0850 
     11 C11        -8.5317   -3.9897   37.4739 C.ar      1 UNK         0.0850 
     12 C12        -4.0548  -11.9962   35.8517 C.ar      1 UNK        -0.1027 
     13 C13        -4.1540  -10.4196   37.7330 C.2       1 UNK         0.4383 
     14 C14        -5.8465   -5.7012   39.6397 C.2       1 UNK         0.6250 
     15 C15        -5.8245   -9.3807   39.1506 C.3       1 UNK         0.0800 
     16 C16        -4.0538   -8.2634   38.8809 C.3       1 UNK         0.0800 
     17 C17        -5.3380   -8.0318   39.6804 C.3       1 UNK         0.1625 
     18 C18       -10.4260   -1.7780   36.9167 C.3       1 UNK         0.1100 
     19 C19        -9.5010   -5.6058   35.9579 C.3       1 UNK         0.1100 
     20 N20        -3.1100  -10.1030   36.9605 N.2       1 UNK        -0.5991 
     21 N21        -4.4194   -9.6750   38.9107 N.pl3     1 UNK        -0.5225 
     22 O22        -4.9567   -5.4450   40.4522 O.2       1 UNK        -0.4300 
     23 O23        -9.1458   -1.5636   37.4905 O.3       1 UNK        -0.2850 
     24 O24        -9.4440   -4.2862   36.4802 O.3       1 UNK        -0.2850 
     25 O25        -6.1199   -6.9456   39.2104 O.3       1 UNK        -0.3025 
     26 S26        -5.1225  -11.8159   37.2413 S.3       1 UNK        -0.0839 
     27 H27        -1.3964  -11.8969   33.0178 H         1 UNK         0.1296 
     28 H28        -3.1697  -13.6425   32.9934 H         1 UNK         0.1749 
     29 H29        -5.8717   -3.0508   40.1941 H         1 UNK         0.1150 
     30 H30        -1.3254  -10.2198   34.8585 H         1 UNK         0.2114 
     31 H31        -7.3249   -1.3090   39.2267 H         1 UNK         0.1150 
     32 H32        -4.8770  -13.7053   34.8199 H         1 UNK         0.2050 
     33 H33        -7.7764   -6.0101   37.7269 H         1 UNK         0.1150 
     34 H34        -6.2907  -10.0208   39.9001 H         1 UNK         0.0600 
     35 H35        -6.4152   -9.3013   38.2357 H         1 UNK         0.0600 
     36 H36        -4.0767   -7.8241   37.8815 H         1 UNK         0.0600 
     37 H37        -3.1347   -8.0320   39.4198 H         1 UNK         0.0600 
     38 H38        -5.1778   -8.0370   40.7604 H         1 UNK         0.0600 
     39 H39       -10.9859   -0.8434   36.9381 H         1 UNK         0.0300 
     40 H40       -11.0045   -2.5171   37.4729 H         1 UNK         0.0300 
     41 H41       -10.3462   -2.0817   35.8729 H         1 UNK         0.0300 
     42 H42       -10.2379   -5.6408   35.1554 H         1 UNK         0.0300 
     43 H43        -9.8108   -6.3234   36.7187 H         1 UNK         0.0300 
     44 H44        -8.5425   -5.9115   35.5356 H         1 UNK         0.0300 
@<TRIPOS>BOND
     1    1    2 ar   
     2    1    4 ar   
     3    1   27 1    
     4    2    6 ar   
     5    2   28 1    
     6    3    5 ar   
     7    3    8 ar   
     8    3   29 1    
     9    4    9 ar   
    10    4   30 1    
    11    5   10 ar   
    12    5   31 1    
    13    6   12 ar   
    14    6   32 1    
    15    7    8 ar   
    16    7   11 ar   
    17    7   33 1    
    18    8   14 1    
    19    9   12 ar   
    20    9   20 1    
    21   10   11 ar   
    22   10   23 1    
    23   11   24 1    
    24   12   26 1    
    25   13   20 2    
    26   13   21 1    
    27   13   26 1    
    28   14   22 2    
    29   14   25 1    
    30   15   17 1    
    31   15   21 1    
    32   15   34 1    
    33   15   35 1    
    34   16   17 1    
    35   16   21 1    
    36   16   36 1    
    37   16   37 1    
    38   17   25 1    
    39   17   38 1    
    40   18   23 1    
    41   18   39 1    
    42   18   40 1    
    43   18   41 1    
    44   19   24 1    
    45   19   42 1    
    46   19   43 1    
    47   19   44 1    
@<TRIPOS>SUBSTRUCTURE
     1 UNK         1 GROUP             0       ****    0 ROOT    
@<TRIPOS>MOLECULE
ZINC77157258_173
44   47    1
SMALL
USER_CHARGES


@<TRIPOS>ATOM
      1 C1         -2.5352  -11.8347   33.4545 C.ar      1 UNK         0.0055 
      2 C2         -3.4543  -12.8880   33.6227 C.ar      1 UNK        -0.3011 
      3 C3         -2.4258  -10.8308   34.4370 C.ar      1 UNK        -0.4461 
      4 C4         -4.2638  -12.9385   34.7734 C.ar      1 UNK        -0.1407 
      5 C5         -6.9830   -3.3803   39.6248 C.ar      1 UNK        -0.1150 
      6 C6         -8.1055   -5.1759   38.4125 C.ar      1 UNK        -0.1150 
      7 C7         -9.0578   -2.9390   38.4403 C.ar      1 UNK        -0.1150 
      8 C8         -7.0294   -4.7324   39.2178 C.ar      1 UNK        -0.1150 
      9 C9         -3.2230  -10.8525   35.6016 C.ar      1 UNK         0.6314 
     10 C10        -7.9987   -2.4725   39.2414 C.ar      1 UNK         0.0850 
     11 C11        -9.1272   -4.2796   38.0164 C.ar      1 UNK         0.0850 
     12 C12        -4.1474  -11.9304   35.7487 C.ar      1 UNK        -0.1027 
     13 C13        -4.1062  -10.2724   37.5605 C.2       1 UNK         0.4383 
     14 C14        -5.9399   -5.6529   39.6490 C.2       1 UNK         0.6250 
     15 C15        -5.6212   -9.3244   39.2030 C.3       1 UNK         0.0800 
     16 C16        -4.0489   -8.0580   38.5940 C.3       1 UNK         0.0800 
     17 C17        -5.1859   -7.9162   39.6085 C.3       1 UNK         0.1625 
     18 C18        -6.9744   -0.6444   40.4145 C.3       1 UNK         0.1100 
     19 C19       -10.2954   -5.9683   36.7682 C.3       1 UNK         0.1100 
     20 N20        -3.2079   -9.9208   36.6353 N.2       1 UNK        -0.5991 
     21 N21        -4.2530   -9.4947   38.7370 N.pl3     1 UNK        -0.5225 
     22 O22        -4.9543   -5.2870   40.2914 O.2       1 UNK        -0.4300 
     23 O23        -8.0271   -1.1424   39.6016 O.3       1 UNK        -0.2850 
     24 O24       -10.2050   -4.6293   37.2320 O.3       1 UNK        -0.2850 
     25 O25        -6.1451   -6.9270   39.2711 O.3       1 UNK        -0.3025 
     26 S26        -5.0253  -11.7548   37.2658 S.3       1 UNK        -0.0839 
     27 H27        -1.9123  -11.7963   32.5714 H         1 UNK         0.1296 
     28 H28        -3.5357  -13.6585   32.8671 H         1 UNK         0.1749 
     29 H29        -1.7213  -10.0232   34.3110 H         1 UNK         0.2114 
     30 H30        -4.9706  -13.7431   34.9138 H         1 UNK         0.2050 
     31 H31        -6.1548   -3.0569   40.2380 H         1 UNK         0.1150 
     32 H32        -8.1378   -6.2077   38.0999 H         1 UNK         0.1150 
     33 H33        -9.8355   -2.2513   38.1427 H         1 UNK         0.1150 
     34 H34        -5.8919   -9.9734   40.0364 H         1 UNK         0.0600 
     35 H35        -6.3600   -9.3367   38.3992 H         1 UNK         0.0600 
     36 H36        -4.2971   -7.6773   37.6010 H         1 UNK         0.0600 
     37 H37        -3.0776   -7.7098   38.9466 H         1 UNK         0.0600 
     38 H38        -4.8353   -7.8681   40.6416 H         1 UNK         0.0600 
     39 H39        -7.1431    0.4139   40.6132 H         1 UNK         0.0300 
     40 H40        -6.0083   -0.7357   39.9161 H         1 UNK         0.0300 
     41 H41        -6.9360   -1.1579   41.3761 H         1 UNK         0.0300 
     42 H42       -11.1917   -6.0776   36.1580 H         1 UNK         0.0300 
     43 H43       -10.3737   -6.6727   37.5974 H         1 UNK         0.0300 
     44 H44        -9.4393   -6.2337   36.1463 H         1 UNK         0.0300 
@<TRIPOS>BOND
     1    1    2 ar   
     2    1    3 ar   
     3    1   27 1    
     4    2    4 ar   
     5    2   28 1    
     6    3    9 ar   
     7    3   29 1    
     8    4   12 ar   
     9    4   30 1    
    10    5    8 ar   
    11    5   10 ar   
    12    5   31 1    
    13    6    8 ar   
    14    6   11 ar   
    15    6   32 1    
    16    7   10 ar   
    17    7   11 ar   
    18    7   33 1    
    19    8   14 1    
    20    9   12 ar   
    21    9   20 1    
    22   10   23 1    
    23   11   24 1    
    24   12   26 1    
    25   13   20 2    
    26   13   21 1    
    27   13   26 1    
    28   14   22 2    
    29   14   25 1    
    30   15   17 1    
    31   15   21 1    
    32   15   34 1    
    33   15   35 1    
    34   16   17 1    
    35   16   21 1    
    36   16   36 1    
    37   16   37 1    
    38   17   25 1    
    39   17   38 1    
    40   18   23 1    
    41   18   39 1    
    42   18   40 1    
    43   18   41 1    
    44   19   24 1    
    45   19   42 1    
    46   19   43 1    
    47   19   44 1    
@<TRIPOS>SUBSTRUCTURE
     1 UNK         1 GROUP             0       ****    0 ROOT    
@<TRIPOS>MOLECULE
ZINC77451899_63
40   42    1
SMALL
USER_CHARGES


@<TRIPOS>ATOM
      1 C1         -9.6087  -18.8333   36.0036 C.ar      1 UNK        -0.1150 
      2 C2        -10.0165  -19.4123   37.2189 C.ar      1 UNK        -0.1150 
      3 C3         -9.9554  -17.5010   35.7150 C.ar      1 UNK        -0.1150 
      4 C4        -13.5942  -16.3230   40.5890 C.ar      1 UNK         0.2270 
      5 C5        -10.7707  -18.6590   38.1406 C.ar      1 UNK        -0.1150 
      6 C6        -10.7094  -16.7537   36.6412 C.ar      1 UNK        -0.1150 
      7 C7        -12.8853  -17.1270   39.6833 C.ar      1 UNK        -0.4470 
      8 C8        -13.3348  -14.9450   40.6102 C.ar      1 UNK        -0.4470 
      9 C9        -11.1306  -17.3180   37.8688 C.ar      1 UNK        -0.0446 
     10 C10       -11.9306  -16.5325   38.8349 C.ar      1 UNK         0.5296 
     11 C11       -12.3834  -14.4190   39.7147 C.ar      1 UNK         0.3658 
     12 C12       -12.0572  -12.9489   39.7599 C.2       1 UNK         0.6192 
     13 C13       -12.0299  -10.7536   38.6549 C.3       1 UNK        -0.0500 
     14 C14       -12.9936  -12.6530   37.4493 C.3       1 UNK        -0.0500 
     15 C15       -13.2686   -9.9980   39.1641 C.3       1 UNK         0.1400 
     16 C16       -15.0513  -11.5182   38.6069 C.3       1 UNK         0.1400 
     17 C17       -14.5249  -12.6126   37.6509 C.3       1 UNK         0.2050 
     18 N18       -11.6926  -15.2046   38.8593 N.ar      1 UNK        -0.6780 
     19 N19       -12.2774  -12.1999   38.6498 N.am      1 UNK        -0.1400 
     20 O20       -11.6687  -12.4549   40.8203 O.2       1 UNK        -0.5000 
     21 O21       -14.4170  -10.2646   38.3586 O.3       1 UNK        -0.4000 
     22 O22       -15.1437  -12.3876   36.4057 O.3       1 UNK        -0.6830 
     23 H23        -9.0288  -19.4081   35.2958 H         1 UNK         0.1150 
     24 H24        -9.7482  -20.4338   37.4470 H         1 UNK         0.1150 
     25 H25        -9.6437  -17.0497   34.7842 H         1 UNK         0.1150 
     26 H26       -14.3219  -16.7575   41.2588 H         1 UNK         0.0650 
     27 H27       -11.0636  -19.1164   39.0737 H         1 UNK         0.1150 
     28 H28       -10.9698  -15.7313   36.4082 H         1 UNK         0.1150 
     29 H29       -13.0760  -18.1885   39.6421 H         1 UNK         0.1550 
     30 H30       -13.8439  -14.2972   41.3101 H         1 UNK         0.1550 
     31 H31       -11.7596  -10.3960   37.6612 H         1 UNK         0.0600 
     32 H32       -11.1692  -10.5119   39.2818 H         1 UNK         0.0600 
     33 H33       -12.6805  -13.6434   37.1218 H         1 UNK         0.0600 
     34 H34       -12.7229  -12.0105   36.6110 H         1 UNK         0.0600 
     35 H35       -13.4645  -10.2123   40.2162 H         1 UNK         0.0300 
     36 H36       -13.0694   -8.9275   39.1099 H         1 UNK         0.0300 
     37 H37       -16.1273  -11.3962   38.4743 H         1 UNK         0.0300 
     38 H38       -14.9240  -11.8231   39.6470 H         1 UNK         0.0300 
     39 H39       -14.8634  -13.5837   38.0164 H         1 UNK         0.0600 
     40 H40       -15.0630  -11.4615   36.2189 H         1 UNK         0.4180 
@<TRIPOS>BOND
     1    1    2 ar   
     2    1    3 ar   
     3    1   23 1    
     4    2    5 ar   
     5    2   24 1    
     6    3    6 ar   
     7    3   25 1    
     8    4    7 ar   
     9    4    8 ar   
    10    4   26 1    
    11    5    9 ar   
    12    5   27 1    
    13    6    9 ar   
    14    6   28 1    
    15    7   10 ar   
    16    7   29 1    
    17    8   11 ar   
    18    8   30 1    
    19    9   10 1    
    20   10   18 ar   
    21   11   12 1    
    22   11   18 ar   
    23   12   19 am   BACKBONE|DICT|INTERRES
    24   12   20 2    
    25   13   15 1    
    26   13   19 1    
    27   13   31 1    
    28   13   32 1    
    29   14   17 1    
    30   14   19 1    
    31   14   33 1    
    32   14   34 1    
    33   15   21 1    
    34   15   35 1    
    35   15   36 1    
    36   16   17 1    
    37   16   21 1    
    38   16   37 1    
    39   16   38 1    
    40   17   22 1    
    41   17   39 1    
    42   22   40 1    
@<TRIPOS>SUBSTRUCTURE
     1 UNK         1 GROUP             0       ****    0 ROOT    
@<TRIPOS>MOLECULE
ZINC77975985_13
39   42    1
SMALL
USER_CHARGES


@<TRIPOS>ATOM
      1 C1         -5.0066  -10.7157   35.0275 C.ar      1 UNK        -0.1150 
      2 C2         -4.6288  -11.4895   36.1400 C.ar      1 UNK        -0.1150 
      3 C3         -5.5956   -9.4531   35.2212 C.ar      1 UNK        -0.1150 
      4 C4         -8.7691   -5.7498   35.3442 C.ar      1 UNK        -0.4470 
      5 C5         -4.8406  -11.0016   37.4440 C.ar      1 UNK        -0.1150 
      6 C6         -5.8064   -8.9661   36.5252 C.ar      1 UNK        -0.1150 
      7 C7         -8.9121   -6.4763   36.5376 C.ar      1 UNK         0.2270 
      8 C8         -5.3993   -9.7407   40.2487 C.2       1 UNK        -0.1540 
      9 C9         -5.8737   -8.7760   41.1822 C.2       1 UNK        -0.1540 
     10 C10        -8.3600   -4.4070   35.4170 C.ar      1 UNK         0.4730 
     11 C11        -5.4323   -9.7348   37.6527 C.ar      1 UNK        -0.4134 
     12 C12        -8.6368   -5.8282   37.7558 C.ar      1 UNK        -0.4550 
     13 C13        -5.6550   -9.2327   39.0052 C.2       1 UNK         0.5364 
     14 C14        -6.4112   -7.7552   40.4468 C.2       1 UNK         0.0453 
     15 C15        -8.2334   -4.4746   37.7232 C.ar      1 UNK         0.3700 
     16 C16        -7.0032   -6.4699   40.8788 C.2       1 UNK         0.5777 
     17 C17        -8.7796   -6.5584   39.0837 C.3       1 UNK         0.1130 
     18 C18        -7.9033   -3.7276   39.0086 C.3       1 UNK        -0.0050 
     19 C19        -8.3502   -4.4889   40.2733 C.3       1 UNK        -0.0500 
     20 N20        -8.0974   -3.7784   36.5798 N.ar      1 UNK        -0.6780 
     21 N21        -7.9930   -5.9068   40.1409 N.am      1 UNK        -0.1400 
     22 O22        -6.5601   -5.9384   41.8965 O.2       1 UNK        -0.5000 
     23 O23        -6.2491   -8.0149   39.1191 O.3       1 UNK        -0.1900 
     24 H24        -4.8427  -11.0889   34.0274 H         1 UNK         0.1150 
     25 H25        -4.1743  -12.4585   35.9925 H         1 UNK         0.1150 
     26 H26        -5.8843   -8.8550   34.3691 H         1 UNK         0.1150 
     27 H27        -8.9672   -6.2100   34.3879 H         1 UNK         0.1550 
     28 H28        -4.5417  -11.6136   38.2826 H         1 UNK         0.1150 
     29 H29        -6.2567   -7.9904   36.6478 H         1 UNK         0.1150 
     30 H30        -9.2224   -7.5110   36.5151 H         1 UNK         0.0650 
     31 H31        -4.9238  -10.6866   40.4572 H         1 UNK         0.1260 
     32 H32        -5.8313   -8.8132   42.2612 H         1 UNK         0.1260 
     33 H33        -8.2404   -3.8216   34.5173 H         1 UNK         0.0120 
     34 H34        -9.8314   -6.5172   39.3698 H         1 UNK         0.0600 
     35 H35        -8.5730   -7.6200   38.9593 H         1 UNK         0.0600 
     36 H36        -6.8239   -3.5747   39.0336 H         1 UNK         0.0600 
     37 H37        -8.3587   -2.7371   38.9830 H         1 UNK         0.0600 
     38 H38        -7.9292   -4.0176   41.1626 H         1 UNK         0.0600 
     39 H39        -9.4328   -4.4123   40.3796 H         1 UNK         0.0600 
@<TRIPOS>BOND
     1    1    2 ar   
     2    1    3 ar   
     3    1   24 1    
     4    2    5 ar   
     5    2   25 1    
     6    3    6 ar   
     7    3   26 1    
     8    4    7 ar   
     9    4   10 ar   
    10    4   27 1    
    11    5   11 ar   
    12    5   28 1    
    13    6   11 ar   
    14    6   29 1    
    15    7   12 ar   
    16    7   30 1    
    17    8    9 1    
    18    8   13 2    
    19    8   31 1    
    20    9   14 2    
    21    9   32 1    
    22   10   20 ar   
    23   10   33 1    
    24   11   13 1    
    25   12   15 ar   
    26   12   17 1    
    27   13   23 1    
    28   14   16 1    
    29   14   23 1    
    30   15   18 1    
    31   15   20 ar   
    32   16   21 am   BACKBONE|DICT|INTERRES
    33   16   22 2    
    34   17   21 1    
    35   17   34 1    
    36   17   35 1    
    37   18   19 1    
    38   18   36 1    
    39   18   37 1    
    40   19   21 1    
    41   19   38 1    
    42   19   39 1    
@<TRIPOS>SUBSTRUCTURE
     1 UNK         1 GROUP             0       ****    0 ROOT    
@<TRIPOS>MOLECULE
ZINC78008236_24
47   48    1
SMALL
USER_CHARGES


@<TRIPOS>ATOM
      1 C1         -6.7433   -3.9149   39.5194 C.ar      1 UNK        -0.1150 
      2 C2         -7.8884   -5.8866   38.6582 C.ar      1 UNK        -0.1150 
      3 C3         -7.0029   -5.2985   39.5870 C.ar      1 UNK        -0.1150 
      4 C4         -7.3207   -3.1199   38.5006 C.ar      1 UNK         0.0850 
      5 C5         -8.4686   -5.1139   37.6243 C.ar      1 UNK         0.0850 
      6 C6         -8.1700   -3.7341   37.5527 C.ar      1 UNK         0.0850 
      7 C7         -6.3983   -6.1104   40.6982 C.2       1 UNK         0.6150 
      8 C8         -5.7874   -9.0256   38.6424 C.3       1 UNK        -0.1200 
      9 C9         -5.8084   -9.6611   41.0802 C.3       1 UNK        -0.1200 
     10 C10        -5.2664   -7.6384   39.0503 C.3       1 UNK        -0.0500 
     11 C11        -5.3661  -10.0887   39.6693 C.3       1 UNK        -0.0600 
     12 C12        -5.3630   -8.2282   41.4516 C.3       1 UNK         0.0100 
     13 C13        -5.9100  -11.4763   39.3016 C.3       1 UNK        -0.1800 
     14 C14        -3.8709   -8.1128   41.8181 C.3       1 UNK        -0.1800 
     15 C15        -6.3472   -1.1032   39.3743 C.3       1 UNK         0.1100 
     16 C16        -9.6558   -7.0070   36.7350 C.3       1 UNK         0.1100 
     17 C17        -7.9743   -2.9588   35.3699 C.3       1 UNK         0.1100 
     18 N18        -5.7504   -7.2684   40.3952 N.am      1 UNK        -0.1400 
     19 O19        -6.5208   -5.6953   41.8505 O.2       1 UNK        -0.5000 
     20 O20        -7.0976   -1.7650   38.3671 O.3       1 UNK        -0.2850 
     21 O21        -9.3170   -5.6305   36.6665 O.3       1 UNK        -0.2850 
     22 O22        -8.7351   -2.9703   36.5649 O.3       1 UNK        -0.2850 
     23 H23        -6.0926   -3.4853   40.2664 H         1 UNK         0.1150 
     24 H24        -8.1053   -6.9386   38.7576 H         1 UNK         0.1150 
     25 H25        -6.8740   -9.0020   38.5517 H         1 UNK         0.0600 
     26 H26        -5.4012   -9.2868   37.6562 H         1 UNK         0.0600 
     27 H27        -6.8970   -9.7105   41.1395 H         1 UNK         0.0600 
     28 H28        -5.4386  -10.3696   41.8228 H         1 UNK         0.0600 
     29 H29        -4.1766   -7.6468   39.0626 H         1 UNK         0.0600 
     30 H30        -5.5171   -6.9129   38.2783 H         1 UNK         0.0600 
     31 H31        -4.2768  -10.1520   39.6616 H         1 UNK         0.0600 
     32 H32        -5.9079   -7.9955   42.3692 H         1 UNK         0.0600 
     33 H33        -5.5747  -12.2314   40.0133 H         1 UNK         0.0600 
     34 H34        -5.5674  -11.7841   38.3131 H         1 UNK         0.0600 
     35 H35        -7.0004  -11.4887   39.2939 H         1 UNK         0.0600 
     36 H36        -3.6183   -7.0918   42.1066 H         1 UNK         0.0600 
     37 H37        -3.2165   -8.3991   40.9956 H         1 UNK         0.0600 
     38 H38        -3.6291   -8.7573   42.6636 H         1 UNK         0.0600 
     39 H39        -6.3152   -0.0360   39.1555 H         1 UNK         0.0300 
     40 H40        -5.3185   -1.4638   39.4075 H         1 UNK         0.0300 
     41 H41        -6.8054   -1.2235   40.3570 H         1 UNK         0.0300 
     42 H42       -10.3376   -7.2497   35.9199 H         1 UNK         0.0300 
     43 H43       -10.1630   -7.2465   37.6706 H         1 UNK         0.0300 
     44 H44        -8.7743   -7.6405   36.6273 H         1 UNK         0.0300 
     45 H45        -8.4584   -2.3158   34.6351 H         1 UNK         0.0300 
     46 H46        -7.8939   -3.9585   34.9409 H         1 UNK         0.0300 
     47 H47        -6.9697   -2.5711   35.5457 H         1 UNK         0.0300 
@<TRIPOS>BOND
     1    1    3 ar   
     2    1    4 ar   
     3    1   23 1    
     4    2    3 ar   
     5    2    5 ar   
     6    2   24 1    
     7    3    7 1    
     8    4    6 ar   
     9    4   20 1    
    10    5    6 ar   
    11    5   21 1    
    12    6   22 1    
    13    7   18 am   BACKBONE|DICT|INTERRES
    14    7   19 2    
    15    8   10 1    
    16    8   11 1    
    17    8   25 1    
    18    8   26 1    
    19    9   11 1    
    20    9   12 1    
    21    9   27 1    
    22    9   28 1    
    23   10   18 1    
    24   10   29 1    
    25   10   30 1    
    26   11   13 1    
    27   11   31 1    
    28   12   14 1    
    29   12   18 1    
    30   12   32 1    
    31   13   33 1    
    32   13   34 1    
    33   13   35 1    
    34   14   36 1    
    35   14   37 1    
    36   14   38 1    
    37   15   20 1    
    38   15   39 1    
    39   15   40 1    
    40   15   41 1    
    41   16   21 1    
    42   16   42 1    
    43   16   43 1    
    44   16   44 1    
    45   17   22 1    
    46   17   45 1    
    47   17   46 1    
    48   17   47 1    
@<TRIPOS>SUBSTRUCTURE
     1 UNK         1 GROUP             0       ****    0 ROOT    
@<TRIPOS>MOLECULE
ZINC78182141_21
46   48    1
SMALL
USER_CHARGES


@<TRIPOS>ATOM
      1 C1        -12.8300  -22.4739   37.3875 C.ar      1 UNK        -0.1150 
      2 C2        -11.4567  -22.7617   37.3129 C.ar      1 UNK        -0.1150 
      3 C3        -17.5740  -13.4337   38.4333 C.ar      1 UNK        -0.1150 
      4 C4        -17.0681  -14.5545   37.7486 C.ar      1 UNK        -0.1150 
      5 C5        -13.2571  -21.1645   37.6733 C.ar      1 UNK        -0.1150 
      6 C6        -10.5152  -21.7394   37.5271 C.ar      1 UNK        -0.1150 
      7 C7        -16.7333  -12.6794   39.2743 C.ar      1 UNK        -0.1150 
      8 C8        -14.8779  -14.1584   38.7366 C.ar      1 UNK        -0.1150 
      9 C9        -15.7213  -14.9384   37.9148 C.ar      1 UNK        -0.1150 
     10 C10       -12.3225  -20.1243   37.8849 C.ar      1 UNK        -0.1150 
     11 C11       -10.9347  -20.4222   37.8142 C.ar      1 UNK        -0.1150 
     12 C12       -15.3703  -13.0344   39.4275 C.ar      1 UNK         0.0850 
     13 C13       -15.1882  -16.1231   37.1610 C.2       1 UNK         0.6150 
     14 C14       -13.6260  -18.5923   39.4872 C.3       1 UNK        -0.1200 
     15 C15       -13.7924  -18.1403   37.1445 C.3       1 UNK        -0.0500 
     16 C16       -12.8373  -18.7162   38.1908 C.3       1 UNK         0.0550 
     17 C17       -14.4504  -17.3075   39.3055 C.3       1 UNK         0.0100 
     18 C18        -9.8710  -19.3614   38.0410 C.3       1 UNK        -0.0650 
     19 C19       -15.8166  -17.4195   40.0121 C.3       1 UNK        -0.1800 
     20 C20       -14.9305  -11.1934   40.9015 C.3       1 UNK         0.1100 
     21 N21       -14.5459  -17.1008   37.8460 N.am      1 UNK        -0.1400 
     22 O22       -15.3475  -16.1708   35.9415 O.2       1 UNK        -0.5000 
     23 O23       -14.4718  -12.3476   40.2136 O.3       1 UNK        -0.2850 
     24 H24       -13.5564  -23.2569   37.2256 H         1 UNK         0.1150 
     25 H25       -11.1248  -23.7659   37.0932 H         1 UNK         0.1150 
     26 H26       -18.6084  -13.1481   38.3081 H         1 UNK         0.1150 
     27 H27       -17.7134  -15.1241   37.0938 H         1 UNK         0.1150 
     28 H28       -14.3171  -20.9653   37.7296 H         1 UNK         0.1150 
     29 H29        -9.4626  -21.9764   37.4687 H         1 UNK         0.1150 
     30 H30       -17.1565  -11.8262   39.7816 H         1 UNK         0.1150 
     31 H31       -13.8326  -14.4111   38.8344 H         1 UNK         0.1150 
     32 H32       -14.2946  -19.4469   39.5991 H         1 UNK         0.0600 
     33 H33       -12.9825  -18.5686   40.3673 H         1 UNK         0.0600 
     34 H34       -13.2465  -17.7596   36.2792 H         1 UNK         0.0600 
     35 H35       -14.5064  -18.8802   36.7826 H         1 UNK         0.0600 
     36 H36       -12.0062  -18.0168   38.2615 H         1 UNK         0.0600 
     37 H37       -13.8829  -16.4843   39.7383 H         1 UNK         0.0600 
     38 H38        -9.9462  -18.5773   37.2872 H         1 UNK         0.0600 
     39 H39        -9.9810  -18.9139   39.0292 H         1 UNK         0.0600 
     40 H40        -8.8672  -19.7826   37.9804 H         1 UNK         0.0600 
     41 H41       -16.4420  -18.1851   39.5516 H         1 UNK         0.0600 
     42 H42       -16.3720  -16.4824   39.9955 H         1 UNK         0.0600 
     43 H43       -15.6869  -17.6873   41.0612 H         1 UNK         0.0600 
     44 H44       -15.2940  -10.4343   40.2077 H         1 UNK         0.0300 
     45 H45       -14.1046  -10.7572   41.4634 H         1 UNK         0.0300 
     46 H46       -15.7193  -11.4408   41.6131 H         1 UNK         0.0300 
@<TRIPOS>BOND
     1    1    2 ar   
     2    1    5 ar   
     3    1   24 1    
     4    2    6 ar   
     5    2   25 1    
     6    3    4 ar   
     7    3    7 ar   
     8    3   26 1    
     9    4    9 ar   
    10    4   27 1    
    11    5   10 ar   
    12    5   28 1    
    13    6   11 ar   
    14    6   29 1    
    15    7   12 ar   
    16    7   30 1    
    17    8    9 ar   
    18    8   12 ar   
    19    8   31 1    
    20    9   13 1    
    21   10   11 ar   
    22   10   16 1    
    23   11   18 1    
    24   12   23 1    
    25   13   21 am   BACKBONE|DICT|INTERRES
    26   13   22 2    
    27   14   16 1    
    28   14   17 1    
    29   14   32 1    
    30   14   33 1    
    31   15   16 1    
    32   15   21 1    
    33   15   34 1    
    34   15   35 1    
    35   16   36 1    
    36   17   19 1    
    37   17   21 1    
    38   17   37 1    
    39   18   38 1    
    40   18   39 1    
    41   18   40 1    
    42   19   41 1    
    43   19   42 1    
    44   19   43 1    
    45   20   23 1    
    46   20   44 1    
    47   20   45 1    
    48   20   46 1    
@<TRIPOS>SUBSTRUCTURE
     1 UNK         1 GROUP             0       ****    0 ROOT    
@<TRIPOS>MOLECULE
ZINC78183091_61
54   56    1
SMALL
USER_CHARGES


@<TRIPOS>ATOM
      1 C1         -7.6698  -13.8539   36.0709 C.ar      1 UNK        -0.1150 
      2 C2         -6.5005  -13.7550   35.2980 C.ar      1 UNK        -0.1150 
      3 C3        -10.9602   -8.4875   38.7483 C.ar      1 UNK        -0.1150 
      4 C4         -7.8333  -13.0344   37.2024 C.ar      1 UNK        -0.1150 
      5 C5         -5.4988  -12.8363   35.6590 C.ar      1 UNK        -0.1150 
      6 C6        -11.5919   -7.6909   37.7796 C.ar      1 UNK        -0.1150 
      7 C7         -9.8457   -7.9951   39.4552 C.ar      1 UNK        -0.1150 
      8 C8         -6.8342  -12.1073   37.5793 C.ar      1 UNK        -0.1150 
      9 C9         -5.6546  -12.0094   36.7926 C.ar      1 UNK        -0.1150 
     10 C10       -11.1273   -6.3955   37.4844 C.ar      1 UNK         0.0850 
     11 C11        -9.3646   -6.6933   39.1793 C.ar      1 UNK         0.0850 
     12 C12        -9.9768   -5.9015   38.1677 C.ar      1 UNK         0.0850 
     13 C13        -9.2058   -8.8485   40.5147 C.2       1 UNK         0.6150 
     14 C14        -7.2918  -11.9989   40.1160 C.3       1 UNK        -0.1200 
     15 C15        -8.2780  -10.3166   38.7224 C.3       1 UNK        -0.0500 
     16 C16        -7.0609  -11.2366   38.8165 C.3       1 UNK         0.0550 
     17 C17        -8.0059  -10.9816   41.0196 C.3       1 UNK         0.0100 
     18 C18        -4.5407  -11.0325   37.1299 C.3       1 UNK        -0.0650 
     19 C19        -9.0162  -11.6588   41.9655 C.3       1 UNK        -0.1800 
     20 C20       -11.7083   -4.3332   36.3481 C.3       1 UNK         0.1100 
     21 C21        -8.6271   -5.2382   40.8513 C.3       1 UNK         0.1100 
     22 C22        -8.0998   -4.6774   37.4116 C.3       1 UNK         0.1100 
     23 N23        -8.6247  -10.0029   40.1109 N.am      1 UNK        -0.1400 
     24 O24        -9.2571   -8.4986   41.6941 O.2       1 UNK        -0.5000 
     25 O25       -11.8467   -5.7366   36.5060 O.3       1 UNK        -0.2850 
     26 O26        -8.2843   -6.2182   39.8819 O.3       1 UNK        -0.2850 
     27 O27        -9.4535   -4.6705   37.8463 O.3       1 UNK        -0.2850 
     28 H28        -8.4419  -14.5578   35.7960 H         1 UNK         0.1150 
     29 H29        -6.3716  -14.3823   34.4280 H         1 UNK         0.1150 
     30 H30       -11.3448   -9.4747   38.9613 H         1 UNK         0.1150 
     31 H31        -8.7400  -13.1245   37.7822 H         1 UNK         0.1150 
     32 H32        -4.6058  -12.7706   35.0543 H         1 UNK         0.1150 
     33 H33       -12.4535   -8.0745   37.2526 H         1 UNK         0.1150 
     34 H34        -7.9430  -12.8562   39.9436 H         1 UNK         0.0600 
     35 H35        -6.3655  -12.3789   40.5482 H         1 UNK         0.0600 
     36 H36        -8.0461   -9.4370   38.1194 H         1 UNK         0.0600 
     37 H37        -9.1314  -10.8194   38.2669 H         1 UNK         0.0600 
     38 H38        -6.1994  -10.5941   38.9904 H         1 UNK         0.0600 
     39 H39        -7.2584  -10.4512   41.6131 H         1 UNK         0.0600 
     40 H40        -4.9149  -10.0083   37.1246 H         1 UNK         0.0600 
     41 H41        -4.1246  -11.2522   38.1135 H         1 UNK         0.0600 
     42 H42        -3.7264  -11.0891   36.4067 H         1 UNK         0.0600 
     43 H43        -9.8196  -12.1456   41.4115 H         1 UNK         0.0600 
     44 H44        -9.4719  -10.9421   42.6494 H         1 UNK         0.0600 
     45 H45        -8.5265  -12.4170   42.5771 H         1 UNK         0.0600 
     46 H46       -12.5178   -3.9648   35.7184 H         1 UNK         0.0300 
     47 H47       -10.7723   -4.0808   35.8496 H         1 UNK         0.0300 
     48 H48       -11.7727   -3.8074   37.3016 H         1 UNK         0.0300 
     49 H49        -7.7426   -4.9763   41.4313 H         1 UNK         0.0300 
     50 H50        -9.3800   -5.6163   41.5443 H         1 UNK         0.0300 
     51 H51        -9.0068   -4.3258   40.3910 H         1 UNK         0.0300 
     52 H52        -7.9460   -3.8568   36.7110 H         1 UNK         0.0300 
     53 H53        -7.8338   -5.6034   36.8986 H         1 UNK         0.0300 
     54 H54        -7.4135   -4.5268   38.2446 H         1 UNK         0.0300 
@<TRIPOS>BOND
     1    1    2 ar   
     2    1    4 ar   
     3    1   28 1    
     4    2    5 ar   
     5    2   29 1    
     6    3    6 ar   
     7    3    7 ar   
     8    3   30 1    
     9    4    8 ar   
    10    4   31 1    
    11    5    9 ar   
    12    5   32 1    
    13    6   10 ar   
    14    6   33 1    
    15    7   11 ar   
    16    7   13 1    
    17    8    9 ar   
    18    8   16 1    
    19    9   18 1    
    20   10   12 ar   
    21   10   25 1    
    22   11   12 ar   
    23   11   26 1    
    24   12   27 1    
    25   13   23 am   BACKBONE|DICT|INTERRES
    26   13   24 2    
    27   14   16 1    
    28   14   17 1    
    29   14   34 1    
    30   14   35 1    
    31   15   16 1    
    32   15   23 1    
    33   15   36 1    
    34   15   37 1    
    35   16   38 1    
    36   17   19 1    
    37   17   23 1    
    38   17   39 1    
    39   18   40 1    
    40   18   41 1    
    41   18   42 1    
    42   19   43 1    
    43   19   44 1    
    44   19   45 1    
    45   20   25 1    
    46   20   46 1    
    47   20   47 1    
    48   20   48 1    
    49   21   26 1    
    50   21   49 1    
    51   21   50 1    
    52   21   51 1    
    53   22   27 1    
    54   22   52 1    
    55   22   53 1    
    56   22   54 1    
@<TRIPOS>SUBSTRUCTURE
     1 UNK         1 GROUP             0       ****    0 ROOT    
@<TRIPOS>MOLECULE
ZINC78184689_25
54   56    1
SMALL
USER_CHARGES


@<TRIPOS>ATOM
      1 C1         -4.4665  -11.8158   36.4122 C.ar      1 UNK        -0.1150 
      2 C2         -3.9469  -11.2279   35.2481 C.ar      1 UNK        -0.1150 
      3 C3         -4.6592  -11.0378   37.5681 C.ar      1 UNK        -0.1150 
      4 C4         -3.6166   -9.8625   35.2462 C.ar      1 UNK        -0.1150 
      5 C5         -8.1218   -5.8444   38.5887 C.ar      1 UNK        -0.1150 
      6 C6         -6.7774   -3.9966   39.4364 C.ar      1 UNK        -0.1150 
      7 C7         -7.1414   -5.3577   39.4805 C.ar      1 UNK        -0.1150 
      8 C8         -4.3387   -9.6574   37.5837 C.ar      1 UNK        -0.1150 
      9 C9         -3.8023   -9.0728   36.4015 C.ar      1 UNK        -0.1150 
     10 C10        -8.6997   -4.9935   37.6165 C.ar      1 UNK         0.0850 
     11 C11        -7.3478   -3.1255   38.4783 C.ar      1 UNK         0.0850 
     12 C12        -8.2971   -3.6394   37.5669 C.ar      1 UNK         0.0850 
     13 C13        -6.5257   -6.2508   40.5215 C.2       1 UNK         0.6150 
     14 C14        -4.8787   -9.5432   40.1535 C.3       1 UNK        -0.1200 
     15 C15        -5.7233   -7.8256   38.7480 C.3       1 UNK        -0.0500 
     16 C16        -4.5606   -8.8149   38.8480 C.3       1 UNK         0.0550 
     17 C17        -5.4585   -8.4431   41.0524 C.3       1 UNK         0.0100 
     18 C18        -3.4144   -7.6043   36.3200 C.3       1 UNK        -0.0650 
     19 C19        -6.4684   -9.0003   42.0749 C.3       1 UNK        -0.1800 
     20 C20       -10.0976   -6.7515   36.7534 C.3       1 UNK         0.1100 
     21 C21        -6.1572   -1.2237   39.3409 C.3       1 UNK         0.1100 
     22 C22        -8.1817   -2.8217   35.3935 C.3       1 UNK         0.1100 
     23 N23        -6.0434   -7.4562   40.1312 N.am      1 UNK        -0.1400 
     24 O24        -6.4574   -5.8517   41.6831 O.2       1 UNK        -0.5000 
     25 O25        -9.6442   -5.4077   36.6999 O.3       1 UNK        -0.2850 
     26 O26        -7.0252   -1.7885   38.3699 O.3       1 UNK        -0.2850 
     27 O27        -8.8565   -2.8004   36.6388 O.3       1 UNK        -0.2850 
     28 H28        -4.7171  -12.8667   36.4201 H         1 UNK         0.1150 
     29 H29        -3.7987  -11.8234   34.3591 H         1 UNK         0.1150 
     30 H30        -5.0552  -11.5389   38.4359 H         1 UNK         0.1150 
     31 H31        -3.2149   -9.4229   34.3444 H         1 UNK         0.1150 
     32 H32        -8.4207   -6.8778   38.6691 H         1 UNK         0.1150 
     33 H33        -6.0501   -3.6441   40.1526 H         1 UNK         0.1150 
     34 H34        -5.6578  -10.2893   40.0028 H         1 UNK         0.0600 
     35 H35        -4.0109  -10.0424   40.5862 H         1 UNK         0.0600 
     36 H36        -5.4609   -6.9647   38.1338 H         1 UNK         0.0600 
     37 H37        -6.5923   -8.3100   38.3011 H         1 UNK         0.0600 
     38 H38        -3.6434   -8.2555   39.0342 H         1 UNK         0.0600 
     39 H39        -4.6406   -7.9543   41.5860 H         1 UNK         0.0600 
     40 H40        -4.2974   -6.9848   36.1669 H         1 UNK         0.0600 
     41 H41        -2.8928   -7.2662   37.2140 H         1 UNK         0.0600 
     42 H42        -2.7428   -7.4275   35.4794 H         1 UNK         0.0600 
     43 H43        -7.3403   -9.4326   41.5830 H         1 UNK         0.0600 
     44 H44        -6.8231   -8.2257   42.7558 H         1 UNK         0.0600 
     45 H45        -6.0119   -9.7787   42.6868 H         1 UNK         0.0600 
     46 H46       -10.8479   -6.9073   35.9782 H         1 UNK         0.0300 
     47 H47       -10.5644   -6.9770   37.7132 H         1 UNK         0.0300 
     48 H48        -9.2843   -7.4549   36.5707 H         1 UNK         0.0300 
     49 H49        -6.0538   -0.1554   39.1512 H         1 UNK         0.0300 
     50 H50        -5.1612   -1.6652   39.2901 H         1 UNK         0.0300 
     51 H51        -6.5553   -1.3416   40.3498 H         1 UNK         0.0300 
     52 H52        -8.6716   -2.1375   34.7011 H         1 UNK         0.0300 
     53 H53        -8.1967   -3.8176   34.9486 H         1 UNK         0.0300 
     54 H54        -7.1441   -2.5030   35.5035 H         1 UNK         0.0300 
@<TRIPOS>BOND
     1    1    2 ar   
     2    1    3 ar   
     3    1   28 1    
     4    2    4 ar   
     5    2   29 1    
     6    3    8 ar   
     7    3   30 1    
     8    4    9 ar   
     9    4   31 1    
    10    5    7 ar   
    11    5   10 ar   
    12    5   32 1    
    13    6    7 ar   
    14    6   11 ar   
    15    6   33 1    
    16    7   13 1    
    17    8    9 ar   
    18    8   16 1    
    19    9   18 1    
    20   10   12 ar   
    21   10   25 1    
    22   11   12 ar   
    23   11   26 1    
    24   12   27 1    
    25   13   23 am   BACKBONE|DICT|INTERRES
    26   13   24 2    
    27   14   16 1    
    28   14   17 1    
    29   14   34 1    
    30   14   35 1    
    31   15   16 1    
    32   15   23 1    
    33   15   36 1    
    34   15   37 1    
    35   16   38 1    
    36   17   19 1    
    37   17   23 1    
    38   17   39 1    
    39   18   40 1    
    40   18   41 1    
    41   18   42 1    
    42   19   43 1    
    43   19   44 1    
    44   19   45 1    
    45   20   25 1    
    46   20   46 1    
    47   20   47 1    
    48   20   48 1    
    49   21   26 1    
    50   21   49 1    
    51   21   50 1    
    52   21   51 1    
    53   22   27 1    
    54   22   52 1    
    55   22   53 1    
    56   22   54 1    
@<TRIPOS>SUBSTRUCTURE
     1 UNK         1 GROUP             0       ****    0 ROOT    
@<TRIPOS>MOLECULE
ZINC78184692_15
54   56    1
SMALL
USER_CHARGES


@<TRIPOS>ATOM
      1 C1         -2.6885   -9.3259   35.8969 C.ar      1 UNK        -0.1150 
      2 C2         -3.1752  -10.4374   35.1887 C.ar      1 UNK        -0.1150 
      3 C3         -3.3098   -8.9316   37.0956 C.ar      1 UNK        -0.1150 
      4 C4         -4.2825  -11.1506   35.6814 C.ar      1 UNK        -0.1150 
      5 C5         -6.3420   -3.8651   39.4134 C.ar      1 UNK        -0.1150 
      6 C6         -7.9939   -5.6262   39.1363 C.ar      1 UNK        -0.1150 
      7 C7         -6.7817   -5.1723   39.6943 C.ar      1 UNK        -0.1150 
      8 C8         -4.4228   -9.6399   37.6049 C.ar      1 UNK        -0.1150 
      9 C9         -4.9126  -10.7624   36.8836 C.ar      1 UNK        -0.1150 
     10 C10        -7.0661   -3.0178   38.5545 C.ar      1 UNK         0.0850 
     11 C11        -8.7294   -4.8095   38.2443 C.ar      1 UNK         0.0850 
     12 C12        -8.2523   -3.5102   37.9389 C.ar      1 UNK         0.0850 
     13 C13        -5.9964   -6.0265   40.6478 C.2       1 UNK         0.6150 
     14 C14        -4.1324   -9.1388   40.1189 C.3       1 UNK        -0.1200 
     15 C15        -5.6391   -7.7530   38.8580 C.3       1 UNK        -0.0500 
     16 C16        -5.0627   -9.1698   38.9122 C.3       1 UNK         0.0550 
     17 C17        -4.8250   -8.1710   41.0875 C.3       1 UNK         0.0100 
     18 C18        -6.1044  -11.5720   37.3649 C.3       1 UNK        -0.0650 
     19 C19        -5.7306   -8.9020   42.0958 C.3       1 UNK        -0.1800 
     20 C20        -7.3738   -0.6921   37.9919 C.3       1 UNK         0.1100 
     21 C21       -10.3888   -6.5219   37.9023 C.3       1 UNK         0.1100 
     22 C22        -8.7571   -3.1205   35.6916 C.3       1 UNK         0.1100 
     23 N23        -5.6052   -7.2579   40.2388 N.am      1 UNK        -0.1400 
     24 O24        -5.7206   -5.5786   41.7598 O.2       1 UNK        -0.5000 
     25 O25        -6.5211   -1.7641   38.3664 O.3       1 UNK        -0.2850 
     26 O26        -9.9080   -5.2106   37.6479 O.3       1 UNK        -0.2850 
     27 O27        -8.9573   -2.7440   37.0452 O.3       1 UNK        -0.2850 
     28 H28        -1.8383   -8.7755   35.5213 H         1 UNK         0.1150 
     29 H29        -2.6999  -10.7435   34.2683 H         1 UNK         0.1150 
     30 H30        -2.9211   -8.0735   37.6242 H         1 UNK         0.1150 
     31 H31        -4.6452  -12.0035   35.1257 H         1 UNK         0.1150 
     32 H32        -5.4364   -3.4968   39.8748 H         1 UNK         0.1150 
     33 H33        -8.3440   -6.6090   39.4109 H         1 UNK         0.1150 
     34 H34        -3.9510  -10.1293   40.5383 H         1 UNK         0.0600 
     35 H35        -3.1620   -8.7236   39.8454 H         1 UNK         0.0600 
     36 H36        -5.0226   -7.0924   38.2471 H         1 UNK         0.0600 
     37 H37        -6.6359   -7.7737   38.4206 H         1 UNK         0.0600 
     38 H38        -5.8856   -9.8280   39.1842 H         1 UNK         0.0600 
     39 H39        -4.0638   -7.6151   41.6397 H         1 UNK         0.0600 
     40 H40        -5.8962  -12.0166   38.3383 H         1 UNK         0.0600 
     41 H41        -6.9894  -10.9406   37.4455 H         1 UNK         0.0600 
     42 H42        -6.3403  -12.3832   36.6756 H         1 UNK         0.0600 
     43 H43        -6.5235   -9.4606   41.5979 H         1 UNK         0.0600 
     44 H44        -6.2009   -8.1984   42.7842 H         1 UNK         0.0600 
     45 H45        -5.1556   -9.6058   42.6984 H         1 UNK         0.0600 
     46 H46        -6.8869    0.2518   38.2356 H         1 UNK         0.0300 
     47 H47        -8.3236   -0.7167   38.5283 H         1 UNK         0.0300 
     48 H48        -7.5599   -0.6911   36.9180 H         1 UNK         0.0300 
     49 H49       -11.3041   -6.6843   37.3334 H         1 UNK         0.0300 
     50 H50       -10.6281   -6.6610   38.9573 H         1 UNK         0.0300 
     51 H51        -9.6687   -7.2791   37.5892 H         1 UNK         0.0300 
     52 H52        -9.2715   -2.4149   35.0397 H         1 UNK         0.0300 
     53 H53        -9.1504   -4.1148   35.4801 H         1 UNK         0.0300 
     54 H54        -7.6976   -3.1033   35.4325 H         1 UNK         0.0300 
@<TRIPOS>BOND
     1    1    2 ar   
     2    1    3 ar   
     3    1   28 1    
     4    2    4 ar   
     5    2   29 1    
     6    3    8 ar   
     7    3   30 1    
     8    4    9 ar   
     9    4   31 1    
    10    5    7 ar   
    11    5   10 ar   
    12    5   32 1    
    13    6    7 ar   
    14    6   11 ar   
    15    6   33 1    
    16    7   13 1    
    17    8    9 ar   
    18    8   16 1    
    19    9   18 1    
    20   10   12 ar   
    21   10   25 1    
    22   11   12 ar   
    23   11   26 1    
    24   12   27 1    
    25   13   23 am   BACKBONE|DICT|INTERRES
    26   13   24 2    
    27   14   16 1    
    28   14   17 1    
    29   14   34 1    
    30   14   35 1    
    31   15   16 1    
    32   15   23 1    
    33   15   36 1    
    34   15   37 1    
    35   16   38 1    
    36   17   19 1    
    37   17   23 1    
    38   17   39 1    
    39   18   40 1    
    40   18   41 1    
    41   18   42 1    
    42   19   43 1    
    43   19   44 1    
    44   19   45 1    
    45   20   25 1    
    46   20   46 1    
    47   20   47 1    
    48   20   48 1    
    49   21   26 1    
    50   21   49 1    
    51   21   50 1    
    52   21   51 1    
    53   22   27 1    
    54   22   52 1    
    55   22   53 1    
    56   22   54 1    
@<TRIPOS>SUBSTRUCTURE
     1 UNK         1 GROUP             0       ****    0 ROOT    
@<TRIPOS>MOLECULE
ZINC78184694_24
54   56    1
SMALL
USER_CHARGES


@<TRIPOS>ATOM
      1 C1         -5.5044  -11.1383   36.0737 C.ar      1 UNK        -0.1150 
      2 C2         -4.4094  -11.1361   35.1935 C.ar      1 UNK        -0.1150 
      3 C3         -5.4852  -10.3206   37.2181 C.ar      1 UNK        -0.1150 
      4 C4         -3.3004  -10.3131   35.4588 C.ar      1 UNK        -0.1150 
      5 C5         -6.8239   -3.8602   39.6940 C.ar      1 UNK        -0.1150 
      6 C6         -7.9764   -5.6627   38.5418 C.ar      1 UNK        -0.1150 
      7 C7         -7.1091   -5.2312   39.5654 C.ar      1 UNK        -0.1150 
      8 C8         -4.3741   -9.4927   37.5027 C.ar      1 UNK        -0.1150 
      9 C9         -3.2726   -9.4884   36.6045 C.ar      1 UNK        -0.1150 
     10 C10        -7.3476   -2.9237   38.7727 C.ar      1 UNK         0.0850 
     11 C11        -8.5130   -4.7489   37.6012 C.ar      1 UNK         0.0850 
     12 C12        -8.1700   -3.3696   37.7111 C.ar      1 UNK         0.0850 
     13 C13        -6.5436   -6.1949   40.5699 C.2       1 UNK         0.6150 
     14 C14        -4.6885   -9.3475   40.0666 C.3       1 UNK        -0.1200 
     15 C15        -5.4664   -7.5191   38.7210 C.3       1 UNK        -0.0500 
     16 C16        -4.4025   -8.6166   38.7572 C.3       1 UNK         0.0550 
     17 C17        -5.1768   -8.2344   41.0037 C.3       1 UNK         0.0100 
     18 C18        -2.0516   -8.6132   36.8320 C.3       1 UNK        -0.0650 
     19 C19        -4.0178   -7.6475   41.8354 C.3       1 UNK        -0.1800 
     20 C20        -6.3242   -1.0764   39.9296 C.3       1 UNK         0.1100 
     21 C21        -9.7130   -6.5242   36.4821 C.3       1 UNK         0.1100 
     22 C22        -8.8014   -2.7031   35.4831 C.3       1 UNK         0.1100 
     23 N23        -5.7850   -7.2253   40.1218 N.am      1 UNK        -0.1400 
     24 O24        -6.7507   -5.9934   41.7655 O.2       1 UNK        -0.5000 
     25 O25        -7.0871   -1.5695   38.8388 O.3       1 UNK        -0.2850 
     26 O26        -9.3794   -5.1489   36.6025 O.3       1 UNK        -0.2850 
     27 O27        -8.6234   -2.3852   36.8552 O.3       1 UNK        -0.2850 
     28 H28        -6.3593  -11.7674   35.8718 H         1 UNK         0.1150 
     29 H29        -4.4203  -11.7631   34.3137 H         1 UNK         0.1150 
     30 H30        -6.3402  -10.3341   37.8774 H         1 UNK         0.1150 
     31 H31        -2.4675  -10.3190   34.7705 H         1 UNK         0.1150 
     32 H32        -6.1910   -3.5514   40.5125 H         1 UNK         0.1150 
     33 H33        -8.2345   -6.7090   38.5097 H         1 UNK         0.1150 
     34 H34        -5.4923  -10.0730   39.9432 H         1 UNK         0.0600 
     35 H35        -3.8214   -9.8923   40.4424 H         1 UNK         0.0600 
     36 H36        -5.1162   -6.6430   38.1728 H         1 UNK         0.0600 
     37 H37        -6.3653   -7.8883   38.2291 H         1 UNK         0.0600 
     38 H38        -3.4418   -8.1229   38.8922 H         1 UNK         0.0600 
     39 H39        -5.9322   -8.6332   41.6839 H         1 UNK         0.0600 
     40 H40        -2.3383   -7.5629   36.8923 H         1 UNK         0.0600 
     41 H41        -1.5455   -8.8954   37.7555 H         1 UNK         0.0600 
     42 H42        -1.3323   -8.7112   36.0183 H         1 UNK         0.0600 
     43 H43        -3.2502   -7.2010   41.2026 H         1 UNK         0.0600 
     44 H44        -3.5416   -8.4204   42.4393 H         1 UNK         0.0600 
     45 H45        -4.3676   -6.8776   42.5240 H         1 UNK         0.0600 
     46 H46        -6.2505    0.0083   39.8535 H         1 UNK         0.0300 
     47 H47        -5.3096   -1.4768   39.9197 H         1 UNK         0.0300 
     48 H48        -6.7968   -1.3078   40.8852 H         1 UNK         0.0300 
     49 H49       -10.3823   -6.6566   35.6319 H         1 UNK         0.0300 
     50 H50       -10.2340   -6.8875   37.3688 H         1 UNK         0.0300 
     51 H51        -8.8283   -7.1367   36.3014 H         1 UNK         0.0300 
     52 H52        -8.6956   -1.7942   34.8911 H         1 UNK         0.0300 
     53 H53        -9.8014   -3.0953   35.2970 H         1 UNK         0.0300 
     54 H54        -8.0573   -3.4159   35.1237 H         1 UNK         0.0300 
@<TRIPOS>BOND
     1    1    2 ar   
     2    1    3 ar   
     3    1   28 1    
     4    2    4 ar   
     5    2   29 1    
     6    3    8 ar   
     7    3   30 1    
     8    4    9 ar   
     9    4   31 1    
    10    5    7 ar   
    11    5   10 ar   
    12    5   32 1    
    13    6    7 ar   
    14    6   11 ar   
    15    6   33 1    
    16    7   13 1    
    17    8    9 ar   
    18    8   16 1    
    19    9   18 1    
    20   10   12 ar   
    21   10   25 1    
    22   11   12 ar   
    23   11   26 1    
    24   12   27 1    
    25   13   23 am   BACKBONE|DICT|INTERRES
    26   13   24 2    
    27   14   16 1    
    28   14   17 1    
    29   14   34 1    
    30   14   35 1    
    31   15   16 1    
    32   15   23 1    
    33   15   36 1    
    34   15   37 1    
    35   16   38 1    
    36   17   19 1    
    37   17   23 1    
    38   17   39 1    
    39   18   40 1    
    40   18   41 1    
    41   18   42 1    
    42   19   43 1    
    43   19   44 1    
    44   19   45 1    
    45   20   25 1    
    46   20   46 1    
    47   20   47 1    
    48   20   48 1    
    49   21   26 1    
    50   21   49 1    
    51   21   50 1    
    52   21   51 1    
    53   22   27 1    
    54   22   52 1    
    55   22   53 1    
    56   22   54 1    
@<TRIPOS>SUBSTRUCTURE
     1 UNK         1 GROUP             0       ****    0 ROOT    
@<TRIPOS>MOLECULE
ZINC78184696_25
54   56    1
SMALL
USER_CHARGES


@<TRIPOS>ATOM
      1 C1         -2.3381   -9.6647   36.1980 C.ar      1 UNK        -0.1150 
      2 C2         -2.8998  -10.7242   35.4659 C.ar      1 UNK        -0.1150 
      3 C3         -3.0193   -9.1452   37.3136 C.ar      1 UNK        -0.1150 
      4 C4         -4.1409  -11.2608   35.8522 C.ar      1 UNK        -0.1150 
      5 C5         -6.5455   -3.8845   39.3726 C.ar      1 UNK        -0.1150 
      6 C6         -7.9707   -5.7625   38.7796 C.ar      1 UNK        -0.1150 
      7 C7         -6.9098   -5.2319   39.5390 C.ar      1 UNK        -0.1150 
      8 C8         -4.2684   -9.6735   37.7141 C.ar      1 UNK        -0.1150 
      9 C9         -4.8320  -10.7454   36.9703 C.ar      1 UNK        -0.1150 
     10 C10        -7.1930   -3.0777   38.4083 C.ar      1 UNK         0.0850 
     11 C11        -8.6357   -4.9800   37.8034 C.ar      1 UNK         0.0850 
     12 C12        -8.2182   -3.6311   37.6048 C.ar      1 UNK         0.0850 
     13 C13        -6.2190   -6.0584   40.5836 C.2       1 UNK         0.6150 
     14 C14        -4.1895   -9.1559   40.2366 C.3       1 UNK        -0.1200 
     15 C15        -5.2872   -7.5813   38.8045 C.3       1 UNK        -0.0500 
     16 C16        -4.9706   -9.0707   38.9321 C.3       1 UNK         0.0550 
     17 C17        -4.7784   -8.0334   41.1079 C.3       1 UNK         0.0100 
     18 C18        -6.1690  -11.3659   37.3381 C.3       1 UNK        -0.0650 
     19 C19        -3.6812   -7.3450   41.9458 C.3       1 UNK        -0.1800 
     20 C20        -5.9056   -1.1404   39.0314 C.3       1 UNK         0.1100 
     21 C21       -10.1260   -6.8094   37.2789 C.3       1 UNK         0.1100 
     22 C22        -9.2391   -3.2972   35.4466 C.3       1 UNK         0.1100 
     23 N23        -5.4727   -7.1181   40.1830 N.am      1 UNK        -0.1400 
     24 O24        -6.3394   -5.7321   41.7627 O.2       1 UNK        -0.5000 
     25 O25        -6.8689   -1.7538   38.1883 O.3       1 UNK        -0.2850 
     26 O26        -9.6902   -5.4755   37.0613 O.3       1 UNK        -0.2850 
     27 O27        -8.7798   -2.7705   36.6820 O.3       1 UNK        -0.2850 
     28 H28        -1.3845   -9.2501   35.9046 H         1 UNK         0.1150 
     29 H29        -2.3795  -11.1260   34.6087 H         1 UNK         0.1150 
     30 H30        -2.5699   -8.3313   37.8632 H         1 UNK         0.1150 
     31 H31        -4.5595  -12.0760   35.2798 H         1 UNK         0.1150 
     32 H32        -5.7588   -3.4923   39.9994 H         1 UNK         0.1150 
     33 H33        -8.2626   -6.7826   38.9748 H         1 UNK         0.1150 
     34 H34        -4.2609  -10.1399   40.7015 H         1 UNK         0.0600 
     35 H35        -3.1315   -8.9646   40.0553 H         1 UNK         0.0600 
     36 H36        -4.4525   -7.0234   38.3796 H         1 UNK         0.0600 
     37 H37        -6.1399   -7.4416   38.1439 H         1 UNK         0.0600 
     38 H38        -5.9198   -9.5733   39.1086 H         1 UNK         0.0600 
     39 H39        -5.5296   -8.4587   41.7765 H         1 UNK         0.0600 
     40 H40        -6.1370  -11.7731   38.3489 H         1 UNK         0.0600 
     41 H41        -6.9645  -10.6228   37.2804 H         1 UNK         0.0600 
     42 H42        -6.4296  -12.1815   36.6630 H         1 UNK         0.0600 
     43 H43        -2.9536   -6.8373   41.3119 H         1 UNK         0.0600 
     44 H44        -3.1417   -8.0736   42.5515 H         1 UNK         0.0600 
     45 H45        -4.0936   -6.6062   42.6331 H         1 UNK         0.0600 
     46 H46        -5.8052   -0.0909   38.7555 H         1 UNK         0.0300 
     47 H47        -4.9254   -1.6054   38.9204 H         1 UNK         0.0300 
     48 H48        -6.2094   -1.1774   40.0785 H         1 UNK         0.0300 
     49 H49       -10.9586   -7.0267   36.6098 H         1 UNK         0.0300 
     50 H50       -10.4804   -6.9519   38.3006 H         1 UNK         0.0300 
     51 H51        -9.3353   -7.5291   37.0628 H         1 UNK         0.0300 
     52 H52        -9.2127   -2.5097   34.6939 H         1 UNK         0.0300 
     53 H53       -10.2721   -3.6367   35.5234 H         1 UNK         0.0300 
     54 H54        -8.6122   -4.1147   35.0871 H         1 UNK         0.0300 
@<TRIPOS>BOND
     1    1    2 ar   
     2    1    3 ar   
     3    1   28 1    
     4    2    4 ar   
     5    2   29 1    
     6    3    8 ar   
     7    3   30 1    
     8    4    9 ar   
     9    4   31 1    
    10    5    7 ar   
    11    5   10 ar   
    12    5   32 1    
    13    6    7 ar   
    14    6   11 ar   
    15    6   33 1    
    16    7   13 1    
    17    8    9 ar   
    18    8   16 1    
    19    9   18 1    
    20   10   12 ar   
    21   10   25 1    
    22   11   12 ar   
    23   11   26 1    
    24   12   27 1    
    25   13   23 am   BACKBONE|DICT|INTERRES
    26   13   24 2    
    27   14   16 1    
    28   14   17 1    
    29   14   34 1    
    30   14   35 1    
    31   15   16 1    
    32   15   23 1    
    33   15   36 1    
    34   15   37 1    
    35   16   38 1    
    36   17   19 1    
    37   17   23 1    
    38   17   39 1    
    39   18   40 1    
    40   18   41 1    
    41   18   42 1    
    42   19   43 1    
    43   19   44 1    
    44   19   45 1    
    45   20   25 1    
    46   20   46 1    
    47   20   47 1    
    48   20   48 1    
    49   21   26 1    
    50   21   49 1    
    51   21   50 1    
    52   21   51 1    
    53   22   27 1    
    54   22   52 1    
    55   22   53 1    
    56   22   54 1    
@<TRIPOS>SUBSTRUCTURE
     1 UNK         1 GROUP             0       ****    0 ROOT    
@<TRIPOS>MOLECULE
ZINC78187305_94
54   56    1
SMALL
USER_CHARGES


@<TRIPOS>ATOM
      1 C1        -16.3951  -16.4178   38.0748 C.ar      1 UNK        -0.1150 
      2 C2        -12.7565  -22.8364   39.2659 C.ar      1 UNK        -0.1150 
      3 C3        -12.7807  -22.6319   36.8447 C.ar      1 UNK        -0.1150 
      4 C4        -17.0421  -15.2801   38.5893 C.ar      1 UNK        -0.1150 
      5 C5        -12.1057  -24.0796   39.1503 C.ar      1 UNK        -0.1150 
      6 C6        -12.1286  -23.8752   36.7305 C.ar      1 UNK        -0.1150 
      7 C7        -18.5294  -17.2560   37.2851 C.ar      1 UNK        -0.1150 
      8 C8        -17.1413  -17.4298   37.4407 C.ar      1 UNK        -0.1150 
      9 C9        -13.1102  -22.1027   38.1119 C.ar      1 UNK        -0.1150 
     10 C10       -11.7851  -24.6146   37.8883 C.ar      1 UNK         0.0850 
     11 C11       -18.4466  -15.1132   38.4659 C.ar      1 UNK         0.0850 
     12 C12       -19.1946  -16.1163   37.7795 C.ar      1 UNK         0.0850 
     13 C13       -16.4774  -18.6504   36.8704 C.2       1 UNK         0.6150 
     14 C14       -14.5910  -20.4948   39.5046 C.3       1 UNK        -0.1200 
     15 C15       -14.8516  -20.4687   37.1412 C.3       1 UNK        -0.0500 
     16 C16       -13.8028  -20.7448   38.2219 C.3       1 UNK         0.0550 
     17 C17       -15.5608  -19.3576   39.1501 C.3       1 UNK         0.0100 
     18 C18       -16.8873  -19.4967   39.9249 C.3       1 UNK        -0.1800 
     19 C19       -20.8551  -14.0038   36.3283 C.3       1 UNK        -0.1800 
     20 C20       -10.8057  -26.3942   36.6110 C.3       1 UNK         0.1100 
     21 C21       -18.3474  -13.0174   39.6648 C.3       1 UNK         0.1100 
     22 C22       -21.3013  -14.9005   37.4929 C.3       1 UNK         0.1400 
     23 N23       -15.7126  -19.4186   37.6844 N.am      1 UNK        -0.1400 
     24 O24       -16.6384  -18.9126   35.6789 O.2       1 UNK        -0.5000 
     25 O25       -11.1468  -25.8353   37.8710 O.3       1 UNK        -0.2850 
     26 O26       -19.0999  -14.0219   39.0006 O.3       1 UNK        -0.2850 
     27 O27       -20.5581  -16.1133   37.5524 O.3       1 UNK        -0.2850 
     28 H28       -15.3224  -16.5063   38.1660 H         1 UNK         0.1150 
     29 H29       -12.9750  -22.4585   40.2531 H         1 UNK         0.1150 
     30 H30       -13.0218  -22.0884   35.9431 H         1 UNK         0.1150 
     31 H31       -16.4261  -14.5441   39.0811 H         1 UNK         0.1150 
     32 H32       -11.8449  -24.6317   40.0413 H         1 UNK         0.1150 
     33 H33       -11.9006  -24.2382   35.7404 H         1 UNK         0.1150 
     34 H34       -19.1025  -18.0137   36.7694 H         1 UNK         0.1150 
     35 H35       -15.1592  -21.3921   39.7575 H         1 UNK         0.0600 
     36 H36       -13.9523  -20.2566   40.3561 H         1 UNK         0.0600 
     37 H37       -14.3878  -20.1801   36.1961 H         1 UNK         0.0600 
     38 H38       -15.4686  -21.3501   36.9583 H         1 UNK         0.0600 
     39 H39       -13.0260  -19.9816   38.1466 H         1 UNK         0.0600 
     40 H40       -15.0815  -18.4143   39.4109 H         1 UNK         0.0600 
     41 H41       -17.4338  -20.3908   39.6225 H         1 UNK         0.0600 
     42 H42       -17.5469  -18.6418   39.7810 H         1 UNK         0.0600 
     43 H43       -16.7026  -19.5716   40.9969 H         1 UNK         0.0600 
     44 H44       -19.8313  -13.6539   36.4552 H         1 UNK         0.0600 
     45 H45       -20.9083  -14.5426   35.3824 H         1 UNK         0.0600 
     46 H46       -21.4958  -13.1258   36.2503 H         1 UNK         0.0600 
     47 H47       -10.3131  -27.3541   36.7648 H         1 UNK         0.0300 
     48 H48       -10.1132  -25.7523   36.0647 H         1 UNK         0.0300 
     49 H49       -11.6921  -26.5729   36.0010 H         1 UNK         0.0300 
     50 H50       -19.0231  -12.2346   40.0089 H         1 UNK         0.0300 
     51 H51       -17.6220  -12.5532   38.9953 H         1 UNK         0.0300 
     52 H52       -17.8339  -13.4156   40.5409 H         1 UNK         0.0300 
     53 H53       -22.3382  -15.1874   37.3177 H         1 UNK         0.0300 
     54 H54       -21.3230  -14.3750   38.4457 H         1 UNK         0.0300 
@<TRIPOS>BOND
     1    1    4 ar   
     2    1    8 ar   
     3    1   28 1    
     4    2    5 ar   
     5    2    9 ar   
     6    2   29 1    
     7    3    6 ar   
     8    3    9 ar   
     9    3   30 1    
    10    4   11 ar   
    11    4   31 1    
    12    5   10 ar   
    13    5   32 1    
    14    6   10 ar   
    15    6   33 1    
    16    7    8 ar   
    17    7   12 ar   
    18    7   34 1    
    19    8   13 1    
    20    9   16 1    
    21   10   25 1    
    22   11   12 ar   
    23   11   26 1    
    24   12   27 1    
    25   13   23 am   BACKBONE|DICT|INTERRES
    26   13   24 2    
    27   14   16 1    
    28   14   17 1    
    29   14   35 1    
    30   14   36 1    
    31   15   16 1    
    32   15   23 1    
    33   15   37 1    
    34   15   38 1    
    35   16   39 1    
    36   17   18 1    
    37   17   23 1    
    38   17   40 1    
    39   18   41 1    
    40   18   42 1    
    41   18   43 1    
    42   19   22 1    
    43   19   44 1    
    44   19   45 1    
    45   19   46 1    
    46   20   25 1    
    47   20   47 1    
    48   20   48 1    
    49   20   49 1    
    50   21   26 1    
    51   21   50 1    
    52   21   51 1    
    53   21   52 1    
    54   22   27 1    
    55   22   53 1    
    56   22   54 1    
@<TRIPOS>SUBSTRUCTURE
     1 UNK         1 GROUP             0       ****    0 ROOT    
@<TRIPOS>MOLECULE
ZINC78187790_23
50   52    1
SMALL
USER_CHARGES


@<TRIPOS>ATOM
      1 C1         -6.4829   -3.8247   39.3605 C.ar      1 UNK        -0.1150 
      2 C2         -4.2497  -11.2420   38.6427 C.ar      1 UNK        -0.1150 
      3 C3         -4.5793   -9.4973   36.9837 C.ar      1 UNK        -0.1150 
      4 C4         -6.9572   -3.0540   38.2836 C.ar      1 UNK        -0.1150 
      5 C5         -4.1165  -12.1914   37.6113 C.ar      1 UNK        -0.1150 
      6 C6         -4.4454  -10.4478   35.9531 C.ar      1 UNK        -0.1150 
      7 C7         -7.9281   -5.6627   38.6765 C.ar      1 UNK        -0.1150 
      8 C8         -6.9482   -5.1416   39.5521 C.ar      1 UNK        -0.1150 
      9 C9         -4.4926   -9.8840   38.3391 C.ar      1 UNK        -0.1150 
     10 C10        -7.9107   -3.5899   37.3945 C.ar      1 UNK        -0.1150 
     11 C11        -4.2125  -11.8105   36.2595 C.ar      1 UNK         0.0850 
     12 C12        -8.4062   -4.8993   37.5827 C.ar      1 UNK         0.0850 
     13 C13        -6.4435   -5.9431   40.7211 C.2       1 UNK         0.6150 
     14 C14        -5.0126   -9.3572   40.8256 C.3       1 UNK        -0.1200 
     15 C15        -5.7020   -7.7768   39.1853 C.3       1 UNK        -0.0500 
     16 C16        -4.6269   -8.8365   39.4438 C.3       1 UNK         0.0550 
     17 C17        -5.5644   -8.1247   41.5550 C.3       1 UNK         0.0100 
     18 C18        -8.4177   -2.7505   36.2378 C.3       1 UNK        -0.0650 
     19 C19        -6.6590   -8.4969   42.5735 C.3       1 UNK        -0.1800 
     20 C20        -4.1301  -12.4423   33.9462 C.3       1 UNK         0.1100 
     21 C21        -9.8224   -6.6855   36.8184 C.3       1 UNK         0.1100 
     22 N22        -6.0344   -7.2165   40.4982 N.am      1 UNK        -0.1400 
     23 O23        -6.3976   -5.4159   41.8320 O.2       1 UNK        -0.5000 
     24 O24        -4.0665  -12.8052   35.3175 O.3       1 UNK        -0.2850 
     25 O25        -9.3409   -5.3574   36.6781 O.3       1 UNK        -0.2850 
     26 H26        -5.7589   -3.4045   40.0451 H         1 UNK         0.1150 
     27 H27        -4.1582  -11.5756   39.6654 H         1 UNK         0.1150 
     28 H28        -4.7456   -8.4642   36.7175 H         1 UNK         0.1150 
     29 H29        -6.5880   -2.0478   38.1473 H         1 UNK         0.1150 
     30 H30        -3.9336  -13.2273   37.8575 H         1 UNK         0.1150 
     31 H31        -4.5224  -10.1041   34.9334 H         1 UNK         0.1150 
     32 H32        -8.3067   -6.6546   38.8667 H         1 UNK         0.1150 
     33 H33        -5.8032  -10.1032   40.7258 H         1 UNK         0.0600 
     34 H34        -4.1795   -9.8237   41.3530 H         1 UNK         0.0600 
     35 H35        -5.3489   -7.0246   38.4777 H         1 UNK         0.0600 
     36 H36        -6.5987   -8.2415   38.7733 H         1 UNK         0.0600 
     37 H37        -3.6625   -8.3323   39.5290 H         1 UNK         0.0600 
     38 H38        -4.7439   -7.6268   42.0763 H         1 UNK         0.0600 
     39 H39        -8.2577   -3.2725   35.2941 H         1 UNK         0.0600 
     40 H40        -9.4868   -2.5681   36.3500 H         1 UNK         0.0600 
     41 H41        -7.9101   -1.7873   36.1849 H         1 UNK         0.0600 
     42 H42        -7.5263   -8.9426   42.0855 H         1 UNK         0.0600 
     43 H43        -7.0037   -7.6262   43.1322 H         1 UNK         0.0600 
     44 H44        -6.2824   -9.2149   43.3025 H         1 UNK         0.0600 
     45 H45        -3.9833  -13.3300   33.3312 H         1 UNK         0.0300 
     46 H46        -3.3474  -11.7284   33.6861 H         1 UNK         0.0300 
     47 H47        -5.1034  -12.0214   33.6904 H         1 UNK         0.0300 
     48 H48       -10.5236   -6.9001   36.0122 H         1 UNK         0.0300 
     49 H49       -10.3539   -6.8186   37.7615 H         1 UNK         0.0300 
     50 H50        -9.0121   -7.4131   36.7518 H         1 UNK         0.0300 
@<TRIPOS>BOND
     1    1    4 ar   
     2    1    8 ar   
     3    1   26 1    
     4    2    5 ar   
     5    2    9 ar   
     6    2   27 1    
     7    3    6 ar   
     8    3    9 ar   
     9    3   28 1    
    10    4   10 ar   
    11    4   29 1    
    12    5   11 ar   
    13    5   30 1    
    14    6   11 ar   
    15    6   31 1    
    16    7    8 ar   
    17    7   12 ar   
    18    7   32 1    
    19    8   13 1    
    20    9   16 1    
    21   10   12 ar   
    22   10   18 1    
    23   11   24 1    
    24   12   25 1    
    25   13   22 am   BACKBONE|DICT|INTERRES
    26   13   23 2    
    27   14   16 1    
    28   14   17 1    
    29   14   33 1    
    30   14   34 1    
    31   15   16 1    
    32   15   22 1    
    33   15   35 1    
    34   15   36 1    
    35   16   37 1    
    36   17   19 1    
    37   17   22 1    
    38   17   38 1    
    39   18   39 1    
    40   18   40 1    
    41   18   41 1    
    42   19   42 1    
    43   19   43 1    
    44   19   44 1    
    45   20   24 1    
    46   20   45 1    
    47   20   46 1    
    48   20   47 1    
    49   21   25 1    
    50   21   48 1    
    51   21   49 1    
    52   21   50 1    
@<TRIPOS>SUBSTRUCTURE
     1 UNK         1 GROUP             0       ****    0 ROOT    
@<TRIPOS>MOLECULE
ZINC78188417_38
51   53    1
SMALL
USER_CHARGES


@<TRIPOS>ATOM
      1 C1         -6.2547   -3.7997   39.4149 C.ar      1 UNK        -0.1150 
      2 C2         -4.2331  -11.2572   38.6273 C.ar      1 UNK        -0.1150 
      3 C3         -4.4825   -9.4769   36.9921 C.ar      1 UNK        -0.1150 
      4 C4         -6.6487   -2.9942   38.3337 C.ar      1 UNK        -0.1150 
      5 C5         -4.0722  -12.1880   37.5834 C.ar      1 UNK        -0.1150 
      6 C6         -4.3216  -10.4093   35.9487 C.ar      1 UNK        -0.1150 
      7 C7         -7.7632   -5.5385   38.6407 C.ar      1 UNK        -0.1150 
      8 C8         -6.7925   -5.0904   39.5624 C.ar      1 UNK        -0.1150 
      9 C9         -4.4508   -9.8910   38.3420 C.ar      1 UNK        -0.1150 
     10 C10        -4.1165  -11.7805   36.2368 C.ar      1 UNK         0.0850 
     11 C11        -7.5903   -3.4422   37.3860 C.ar      1 UNK         0.0850 
     12 C12        -8.1707   -4.7393   37.5398 C.ar      1 UNK         0.0850 
     13 C13        -6.3756   -5.9413   40.7308 C.2       1 UNK         0.6150 
     14 C14        -5.0939   -9.4130   40.8072 C.3       1 UNK        -0.1200 
     15 C15        -5.6324   -7.7608   39.1801 C.3       1 UNK        -0.0500 
     16 C16        -4.6125   -8.8674   39.4653 C.3       1 UNK         0.0550 
     17 C17        -5.6443   -8.1835   41.5425 C.3       1 UNK         0.0100 
     18 C18        -6.8168   -8.5425   42.4753 C.3       1 UNK        -0.1800 
     19 C19        -3.9896  -12.3767   33.9160 C.3       1 UNK         0.1100 
     20 C20        -8.7475   -2.8398   35.3288 C.3       1 UNK         0.1100 
     21 C21        -9.6786   -6.4783   36.7912 C.3       1 UNK         0.1100 
     22 N22        -6.0124   -7.2250   40.4903 N.am      1 UNK        -0.1400 
     23 O23        -6.3626   -5.4460   41.8568 O.2       1 UNK        -0.5000 
     24 O24        -3.9499  -12.7599   35.2825 O.3       1 UNK        -0.2850 
     25 O25        -7.8525   -2.5269   36.3837 O.3       1 UNK        -0.2850 
     26 O26        -9.1083   -5.1872   36.6300 O.3       1 UNK        -0.2850 
     27 H27        -5.5360   -3.4268   40.1317 H         1 UNK         0.1150 
     28 H28        -4.1825  -11.6110   39.6460 H         1 UNK         0.1150 
     29 H29        -4.6263   -8.4370   36.7394 H         1 UNK         0.1150 
     30 H30        -6.2222   -2.0077   38.2251 H         1 UNK         0.1150 
     31 H31        -3.9089  -13.2301   37.8161 H         1 UNK         0.1150 
     32 H32        -4.3558  -10.0452   34.9336 H         1 UNK         0.1150 
     33 H33        -8.1913   -6.5139   38.8078 H         1 UNK         0.1150 
     34 H34        -5.9011  -10.1284   40.6399 H         1 UNK         0.0600 
     35 H35        -4.3081   -9.9225   41.3664 H         1 UNK         0.0600 
     36 H36        -5.2134   -7.0040   38.5149 H         1 UNK         0.0600 
     37 H37        -6.5230   -8.1777   38.7080 H         1 UNK         0.0600 
     38 H38        -3.6371   -8.4022   39.6194 H         1 UNK         0.0600 
     39 H39        -4.8405   -7.7363   42.1312 H         1 UNK         0.0600 
     40 H40        -7.6683   -8.9332   41.9174 H         1 UNK         0.0600 
     41 H41        -7.1613   -7.6764   43.0415 H         1 UNK         0.0600 
     42 H42        -6.5182   -9.3002   43.2003 H         1 UNK         0.0600 
     43 H43        -3.8437  -13.2579   33.2912 H         1 UNK         0.0300 
     44 H44        -3.1952  -11.6684   33.6773 H         1 UNK         0.0300 
     45 H45        -4.9545  -11.9418   33.6521 H         1 UNK         0.0300 
     46 H46        -8.7814   -2.0019   34.6329 H         1 UNK         0.0300 
     47 H47        -9.7621   -2.9944   35.6978 H         1 UNK         0.0300 
     48 H48        -8.4165   -3.7134   34.7662 H         1 UNK         0.0300 
     49 H49       -10.3856   -6.6607   35.9822 H         1 UNK         0.0300 
     50 H50       -10.2283   -6.5580   37.7301 H         1 UNK         0.0300 
     51 H51        -8.9191   -7.2600   36.7445 H         1 UNK         0.0300 
@<TRIPOS>BOND
     1    1    4 ar   
     2    1    8 ar   
     3    1   27 1    
     4    2    5 ar   
     5    2    9 ar   
     6    2   28 1    
     7    3    6 ar   
     8    3    9 ar   
     9    3   29 1    
    10    4   11 ar   
    11    4   30 1    
    12    5   10 ar   
    13    5   31 1    
    14    6   10 ar   
    15    6   32 1    
    16    7    8 ar   
    17    7   12 ar   
    18    7   33 1    
    19    8   13 1    
    20    9   16 1    
    21   10   24 1    
    22   11   12 ar   
    23   11   25 1    
    24   12   26 1    
    25   13   22 am   BACKBONE|DICT|INTERRES
    26   13   23 2    
    27   14   16 1    
    28   14   17 1    
    29   14   34 1    
    30   14   35 1    
    31   15   16 1    
    32   15   22 1    
    33   15   36 1    
    34   15   37 1    
    35   16   38 1    
    36   17   18 1    
    37   17   22 1    
    38   17   39 1    
    39   18   40 1    
    40   18   41 1    
    41   18   42 1    
    42   19   24 1    
    43   19   43 1    
    44   19   44 1    
    45   19   45 1    
    46   20   25 1    
    47   20   46 1    
    48   20   47 1    
    49   20   48 1    
    50   21   26 1    
    51   21   49 1    
    52   21   50 1    
    53   21   51 1    
@<TRIPOS>SUBSTRUCTURE
     1 UNK         1 GROUP             0       ****    0 ROOT    
@<TRIPOS>MOLECULE
ZINC78510622_36
57   59    1
SMALL
USER_CHARGES


@<TRIPOS>ATOM
      1 C1         -4.4904   -8.7243   36.5394 C.ar      1 UNK        -0.1150 
      2 C2         -4.5446   -7.3900   36.9782 C.ar      1 UNK        -0.1150 
      3 C3         -4.9870   -9.7521   37.3608 C.ar      1 UNK        -0.1150 
      4 C4         -5.1099   -7.0830   38.2295 C.ar      1 UNK        -0.1150 
      5 C5         -8.2650   -6.5492   38.4221 C.ar      1 UNK        -0.1150 
      6 C6         -7.6194   -4.5131   39.5940 C.ar      1 UNK        -0.1150 
      7 C7         -7.6230   -5.9209   39.5122 C.ar      1 UNK        -0.1150 
      8 C8         -5.5571   -9.4537   38.6158 C.ar      1 UNK        -0.1150 
      9 C9         -5.6523   -8.1050   39.0492 C.ar      1 UNK        -0.0383 
     10 C10        -8.8446   -5.7851   37.3819 C.ar      1 UNK         0.0850 
     11 C11        -8.2079   -3.7276   38.5747 C.ar      1 UNK         0.0850 
     12 C12        -8.8059   -4.3754   37.4710 C.ar      1 UNK         0.0850 
     13 C13        -7.0075   -6.7303   40.6245 C.2       1 UNK         0.6150 
     14 C14        -6.0375  -10.6089   39.4844 C.3       1 UNK        -0.0050 
     15 C15        -6.0700   -8.8642   41.3437 C.3       1 UNK        -0.0500 
     16 C16        -6.6600  -10.1897   40.8321 C.3       1 UNK        -0.0600 
     17 C17        -6.5440  -11.3038   41.8831 C.3       1 UNK        -0.1800 
     18 C18       -10.6166   -8.3749   36.8846 C.3       1 UNK        -0.1800 
     19 C19        -7.8926   -0.1662   39.4960 C.3       1 UNK        -0.1800 
     20 C20        -9.2127   -2.4800   34.3816 C.3       1 UNK        -0.1800 
     21 C21        -9.4704   -7.7398   36.0859 C.3       1 UNK         0.1400 
     22 C22        -7.7059   -1.6683   39.7142 C.3       1 UNK         0.1400 
     23 C23        -8.4877   -3.3543   35.4057 C.3       1 UNK         0.1400 
     24 N24        -6.2429   -7.8203   40.3253 N.am      1 UNK        -0.0317 
     25 O25        -7.2006   -6.3538   41.7821 O.2       1 UNK        -0.5000 
     26 O26        -9.4470   -6.3287   36.2637 O.3       1 UNK        -0.2850 
     27 O27        -8.2263   -2.3479   38.5822 O.3       1 UNK        -0.2850 
     28 O28        -9.3736   -3.6188   36.4790 O.3       1 UNK        -0.2850 
     29 H29        -4.0537   -8.9610   35.5799 H         1 UNK         0.1150 
     30 H30        -4.1493   -6.5997   36.3562 H         1 UNK         0.1150 
     31 H31        -4.9199  -10.7773   37.0258 H         1 UNK         0.1150 
     32 H32        -5.1236   -6.0500   38.5459 H         1 UNK         0.1150 
     33 H33        -8.2869   -7.6272   38.3970 H         1 UNK         0.1150 
     34 H34        -7.1530   -4.0570   40.4546 H         1 UNK         0.1150 
     35 H35        -6.7416  -11.2219   38.9201 H         1 UNK         0.0600 
     36 H36        -5.1648  -11.2370   39.6694 H         1 UNK         0.0600 
     37 H37        -6.5267   -8.6116   42.3024 H         1 UNK         0.0600 
     38 H38        -5.0033   -8.9753   41.5425 H         1 UNK         0.0600 
     39 H39        -7.7218  -10.0082   40.6555 H         1 UNK         0.0600 
     40 H40        -5.5023  -11.5138   42.1290 H         1 UNK         0.0600 
     41 H41        -6.9953  -12.2301   41.5258 H         1 UNK         0.0600 
     42 H42        -7.0527  -11.0273   42.8074 H         1 UNK         0.0600 
     43 H43       -10.5085   -8.2112   37.9560 H         1 UNK         0.0600 
     44 H44       -11.5750   -7.9515   36.5830 H         1 UNK         0.0600 
     45 H45       -10.6590   -9.4505   36.7131 H         1 UNK         0.0600 
     46 H46        -7.3671    0.1649   38.6001 H         1 UNK         0.0600 
     47 H47        -8.9478    0.0797   39.3750 H         1 UNK         0.0600 
     48 H48        -7.5091    0.4032   40.3425 H         1 UNK         0.0600 
     49 H49       -10.1014   -2.9844   34.0021 H         1 UNK         0.0600 
     50 H50        -9.5275   -1.5378   34.8306 H         1 UNK         0.0600 
     51 H51        -8.5662   -2.2510   33.5349 H         1 UNK         0.0600 
     52 H52        -9.6386   -7.9268   35.0250 H         1 UNK         0.0300 
     53 H53        -8.5069   -8.1985   36.3110 H         1 UNK         0.0300 
     54 H54        -8.2319   -1.9758   40.6194 H         1 UNK         0.0300 
     55 H55        -6.6453   -1.8917   39.8393 H         1 UNK         0.0300 
     56 H56        -7.5961   -2.8411   35.7700 H         1 UNK         0.0300 
     57 H57        -8.1649   -4.2867   34.9399 H         1 UNK         0.0300 
@<TRIPOS>BOND
     1    1    2 ar   
     2    1    3 ar   
     3    1   29 1    
     4    2    4 ar   
     5    2   30 1    
     6    3    8 ar   
     7    3   31 1    
     8    4    9 ar   
     9    4   32 1    
    10    5    7 ar   
    11    5   10 ar   
    12    5   33 1    
    13    6    7 ar   
    14    6   11 ar   
    15    6   34 1    
    16    7   13 1    
    17    8    9 ar   
    18    8   14 1    
    19    9   24 1    
    20   10   12 ar   
    21   10   26 1    
    22   11   12 ar   
    23   11   27 1    
    24   12   28 1    
    25   13   24 am   BACKBONE|DICT|INTERRES
    26   13   25 2    
    27   14   16 1    
    28   14   35 1    
    29   14   36 1    
    30   15   16 1    
    31   15   24 1    
    32   15   37 1    
    33   15   38 1    
    34   16   17 1    
    35   16   39 1    
    36   17   40 1    
    37   17   41 1    
    38   17   42 1    
    39   18   21 1    
    40   18   43 1    
    41   18   44 1    
    42   18   45 1    
    43   19   22 1    
    44   19   46 1    
    45   19   47 1    
    46   19   48 1    
    47   20   23 1    
    48   20   49 1    
    49   20   50 1    
    50   20   51 1    
    51   21   26 1    
    52   21   52 1    
    53   21   53 1    
    54   22   27 1    
    55   22   54 1    
    56   22   55 1    
    57   23   28 1    
    58   23   56 1    
    59   23   57 1    
@<TRIPOS>SUBSTRUCTURE
     1 UNK         1 GROUP             0       ****    0 ROOT    
@<TRIPOS>MOLECULE
ZINC78531005_221
41   42    1
SMALL
USER_CHARGES


@<TRIPOS>ATOM
      1 C1         -9.8319   -7.0887   39.0565 C.ar      1 UNK        -0.1150 
      2 C2         -7.8773  -14.6976   38.1083 C.ar      1 UNK        -0.1150 
      3 C3        -10.8187   -6.3815   38.3464 C.ar      1 UNK        -0.1150 
      4 C4         -8.0516  -13.3808   38.5760 C.ar      1 UNK        -0.1150 
      5 C5        -10.3998   -9.1098   37.8311 C.ar      1 UNK        -0.1150 
      6 C6         -7.2725  -12.5354   36.4382 C.ar      1 UNK        -0.1150 
      7 C7         -9.6135   -8.4610   38.8121 C.ar      1 UNK        -0.1150 
      8 C8         -7.3945  -14.9556   36.8036 C.ar      1 UNK        -0.1150 
      9 C9         -7.7481  -12.2817   37.7384 C.ar      1 UNK         0.0850 
     10 C10       -11.6088   -7.0330   37.3685 C.ar      1 UNK         0.0850 
     11 C11       -11.3942   -8.4054   37.1067 C.ar      1 UNK         0.0850 
     12 C12        -7.0962  -13.8506   35.9657 C.ar      1 UNK         0.2200 
     13 C13        -8.5567   -9.1756   39.5899 C.2       1 UNK         0.5370 
     14 C14        -7.2411  -16.3830   36.3825 C.2       1 UNK         0.5850 
     15 C15        -6.5832  -16.7022   35.0446 C.3       1 UNK        -0.1800 
     16 C16       -12.8312   -5.0214   36.8723 C.3       1 UNK         0.1100 
     17 C17       -11.9679  -10.3486   35.8029 C.3       1 UNK         0.1100 
     18 C18        -8.4113  -10.6887   39.4026 C.3       1 UNK         0.1880 
     19 O19        -7.8212   -8.6085   40.3983 O.2       1 UNK        -0.4700 
     20 O20        -7.6119  -17.3262   37.0814 O.2       1 UNK        -0.4700 
     21 O21       -12.5931   -6.4007   36.6370 O.3       1 UNK        -0.2850 
     22 O22       -12.1870   -8.9868   36.1383 O.3       1 UNK        -0.2850 
     23 O23        -7.8883  -10.9634   38.1080 O.3       1 UNK        -0.2850 
     24 F24        -6.6447  -14.0141   34.6995 F         1 UNK        -0.2200 
     25 H25        -9.2404   -6.5673   39.7970 H         1 UNK         0.1150 
     26 H26        -8.1162  -15.5209   38.7681 H         1 UNK         0.1150 
     27 H27       -10.9482   -5.3346   38.5718 H         1 UNK         0.1150 
     28 H28        -8.4165  -13.2471   39.5833 H         1 UNK         0.1150 
     29 H29       -10.2338  -10.1549   37.6290 H         1 UNK         0.1150 
     30 H30        -7.0379  -11.7068   35.7863 H         1 UNK         0.1150 
     31 H31        -6.4498  -17.7785   34.9389 H         1 UNK         0.0600 
     32 H32        -5.6045  -16.2282   34.9772 H         1 UNK         0.0600 
     33 H33        -7.2056  -16.3522   34.2217 H         1 UNK         0.0600 
     34 H34       -13.6339   -4.6793   36.2192 H         1 UNK         0.0300 
     35 H35       -11.9480   -4.4207   36.6505 H         1 UNK         0.0300 
     36 H36       -13.1447   -4.8404   37.9013 H         1 UNK         0.0300 
     37 H37       -12.6547  -10.6358   35.0069 H         1 UNK         0.0300 
     38 H38       -12.1578  -11.0044   36.6534 H         1 UNK         0.0300 
     39 H39       -10.9534  -10.5120   35.4366 H         1 UNK         0.0300 
     40 H40        -9.3848  -11.1607   39.5375 H         1 UNK         0.0300 
     41 H41        -7.7384  -11.0794   40.1667 H         1 UNK         0.0300 
@<TRIPOS>BOND
     1    1    3 ar   
     2    1    7 ar   
     3    1   25 1    
     4    2    4 ar   
     5    2    8 ar   
     6    2   26 1    
     7    3   10 ar   
     8    3   27 1    
     9    4    9 ar   
    10    4   28 1    
    11    5    7 ar   
    12    5   11 ar   
    13    5   29 1    
    14    6    9 ar   
    15    6   12 ar   
    16    6   30 1    
    17    7   13 1    
    18    8   12 ar   
    19    8   14 1    
    20    9   23 1    
    21   10   11 ar   
    22   10   21 1    
    23   11   22 1    
    24   12   24 1    
    25   13   18 1    
    26   13   19 2    
    27   14   15 1    
    28   14   20 2    
    29   15   31 1    
    30   15   32 1    
    31   15   33 1    
    32   16   21 1    
    33   16   34 1    
    34   16   35 1    
    35   16   36 1    
    36   17   22 1    
    37   17   37 1    
    38   17   38 1    
    39   17   39 1    
    40   18   23 1    
    41   18   40 1    
    42   18   41 1    
@<TRIPOS>SUBSTRUCTURE
     1 UNK         1 GROUP             0       ****    0 ROOT    
@<TRIPOS>MOLECULE
ZINC78546545_2
45   46    1
SMALL
USER_CHARGES


@<TRIPOS>ATOM
      1 C1        -10.4493   -8.3346   38.7033 C.ar      1 UNK        -0.1150 
      2 C2         -9.2403   -6.4666   39.6929 C.ar      1 UNK        -0.1150 
      3 C3         -9.5590   -7.8407   39.6809 C.ar      1 UNK        -0.1150 
      4 C4         -7.6058  -12.1061   40.6017 C.ar      1 UNK        -0.2850 
      5 C5        -10.9887   -7.4775   37.7150 C.ar      1 UNK         0.0850 
      6 C6         -9.7711   -5.5883   38.7177 C.ar      1 UNK         0.0850 
      7 C7        -10.6373   -6.1095   37.7275 C.ar      1 UNK         0.0850 
      8 C8         -7.8790  -11.7361   39.2565 C.ar      1 UNK         0.2230 
      9 C9         -8.0042  -11.0178   41.3361 C.ar      1 UNK         0.0560 
     10 C10        -9.0054   -8.7356   40.7577 C.2       1 UNK         0.7375 
     11 C11        -7.6457  -12.5235   38.0018 C.3       1 UNK        -0.0650 
     12 C12        -7.9465  -10.8460   42.8256 C.3       1 UNK        -0.0650 
     13 C13        -5.5086  -13.2677   41.3577 C.3       1 UNK        -0.1800 
     14 C14       -12.1889   -9.2769   36.6633 C.3       1 UNK         0.1100 
     15 C15        -8.6503   -3.6879   39.6788 C.3       1 UNK         0.1100 
     16 C16       -10.2669   -4.9236   35.7508 C.3       1 UNK         0.1100 
     17 C17        -7.0107  -13.4037   41.0842 C.3       1 UNK        -0.0050 
     18 N18        -8.4058  -10.5327   39.1688 N.2       1 UNK        -0.5310 
     19 N19        -8.4920  -10.0638   40.4387 N.pl3     1 UNK         0.0695 
     20 O20        -8.9242   -8.3251   41.9172 O.2       1 UNK        -0.5000 
     21 O21       -11.8461   -7.9005   36.7197 O.3       1 UNK        -0.2850 
     22 O22        -9.4984   -4.2357   38.6812 O.3       1 UNK        -0.2850 
     23 O23       -11.1786   -5.2837   36.7750 O.3       1 UNK        -0.2850 
     24 H24       -10.7055   -9.3826   38.7273 H         1 UNK         0.1150 
     25 H25        -8.5823   -6.1081   40.4701 H         1 UNK         0.1150 
     26 H26        -8.4417  -13.2512   37.8463 H         1 UNK         0.0600 
     27 H27        -7.6100  -11.8759   37.1251 H         1 UNK         0.0600 
     28 H28        -6.7007  -13.0641   38.0489 H         1 UNK         0.0600 
     29 H29        -7.2859  -10.0227   43.0982 H         1 UNK         0.0600 
     30 H30        -8.9359  -10.6424   43.2357 H         1 UNK         0.0600 
     31 H31        -7.5679  -11.7418   43.3159 H         1 UNK         0.0600 
     32 H32        -4.9695  -12.9764   40.4556 H         1 UNK         0.0600 
     33 H33        -5.0886  -14.2116   41.7060 H         1 UNK         0.0600 
     34 H34        -5.3115  -12.5150   42.1214 H         1 UNK         0.0600 
     35 H35       -12.8518   -9.4473   35.8151 H         1 UNK         0.0300 
     36 H36       -12.7184   -9.5925   37.5634 H         1 UNK         0.0300 
     37 H37       -11.3064   -9.9028   36.5233 H         1 UNK         0.0300 
     38 H38        -8.5404   -2.6173   39.5070 H         1 UNK         0.0300 
     39 H39        -7.6539   -4.1304   39.6429 H         1 UNK         0.0300 
     40 H40        -9.0713   -3.8200   40.6764 H         1 UNK         0.0300 
     41 H41       -10.7893   -4.3482   34.9870 H         1 UNK         0.0300 
     42 H42        -9.8452   -5.8089   35.2728 H         1 UNK         0.0300 
     43 H43        -9.4497   -4.3092   36.1291 H         1 UNK         0.0300 
     44 H44        -7.5121  -13.7476   41.9894 H         1 UNK         0.0600 
     45 H45        -7.1665  -14.1966   40.3521 H         1 UNK         0.0600 
@<TRIPOS>BOND
     1    1    3 ar   
     2    1    5 ar   
     3    1   24 1    
     4    2    3 ar   
     5    2    6 ar   
     6    2   25 1    
     7    3   10 1    
     8    4    8 ar   
     9    4    9 ar   
    10    4   17 1    
    11    5    7 ar   
    12    5   21 1    
    13    6    7 ar   
    14    6   22 1    
    15    7   23 1    
    16    8   11 1    
    17    8   18 ar   
    18    9   12 1    
    19    9   19 ar   
    20   10   19 1    
    21   10   20 2    
    22   11   26 1    
    23   11   27 1    
    24   11   28 1    
    25   12   29 1    
    26   12   30 1    
    27   12   31 1    
    28   13   17 1    
    29   13   32 1    
    30   13   33 1    
    31   13   34 1    
    32   14   21 1    
    33   14   35 1    
    34   14   36 1    
    35   14   37 1    
    36   15   22 1    
    37   15   38 1    
    38   15   39 1    
    39   15   40 1    
    40   16   23 1    
    41   16   41 1    
    42   16   42 1    
    43   16   43 1    
    44   17   44 1    
    45   17   45 1    
    46   18   19 ar   
@<TRIPOS>SUBSTRUCTURE
     1 UNK         1 GROUP             0       ****    0 ROOT    
@<TRIPOS>MOLECULE
ZINC78547013_0
48   49    1
SMALL
USER_CHARGES


@<TRIPOS>ATOM
      1 C1        -45.7767  -44.6206   39.5438 C.ar      1 UNK        -0.1150 
      2 C2        -43.3601  -44.8127   39.6223 C.ar      1 UNK        -0.1150 
      3 C3        -44.6293  -45.4036   39.7721 C.ar      1 UNK        -0.1150 
      4 C4        -43.0275  -49.8750   39.2470 C.ar      1 UNK        -0.2850 
      5 C5        -45.6711  -43.2654   39.1461 C.ar      1 UNK         0.0850 
      6 C6        -43.2165  -43.4735   39.2179 C.ar      1 UNK         0.0850 
      7 C7        -44.3813  -42.6785   39.0050 C.ar      1 UNK         0.0850 
      8 C8        -42.5375  -48.8504   38.3926 C.ar      1 UNK         0.2230 
      9 C9        -43.9285  -49.2335   40.0587 C.ar      1 UNK         0.0560 
     10 C10       -44.7812  -46.8281   40.2339 C.2       1 UNK         0.7375 
     11 C11       -41.5176  -48.9530   37.2981 C.3       1 UNK        -0.0650 
     12 C12       -44.7453  -49.8233   41.1704 C.3       1 UNK        -0.0650 
     13 C13       -41.0740  -53.0745   40.2656 C.3       1 UNK        -0.1800 
     14 C14       -48.0710  -43.0678   38.9711 C.3       1 UNK         0.1100 
     15 C15       -41.6039  -41.9369   38.2718 C.3       1 UNK         0.1100 
     16 C16       -44.9880  -40.4041   39.4034 C.3       1 UNK         0.1100 
     17 C17       -42.6270  -51.3267   39.2408 C.3       1 UNK        -0.0050 
     18 C18       -41.5054  -51.6037   40.2518 C.3       1 UNK        -0.1200 
     19 N19       -43.0922  -47.6841   38.6470 N.2       1 UNK        -0.5310 
     20 N20       -43.9539  -47.8904   39.6732 N.pl3     1 UNK         0.0695 
     21 O21       -45.6581  -47.1196   41.0503 O.2       1 UNK        -0.5000 
     22 O22       -46.7788  -42.4873   38.8709 O.3       1 UNK        -0.2850 
     23 O23       -41.9078  -43.0471   39.1023 O.3       1 UNK        -0.2850 
     24 O24       -44.2402  -41.3531   38.6544 O.3       1 UNK        -0.2850 
     25 H25       -46.7375  -45.0941   39.6779 H         1 UNK         0.1150 
     26 H26       -42.4691  -45.3960   39.8068 H         1 UNK         0.1150 
     27 H27       -41.1660  -47.9692   36.9854 H         1 UNK         0.0600 
     28 H28       -41.9361  -49.4502   36.4234 H         1 UNK         0.0600 
     29 H29       -40.6495  -49.5241   37.6258 H         1 UNK         0.0600 
     30 H30       -45.8097  -49.7781   40.9392 H         1 UNK         0.0600 
     31 H31       -44.5742  -49.2916   42.1066 H         1 UNK         0.0600 
     32 H32       -44.4900  -50.8682   41.3416 H         1 UNK         0.0600 
     33 H33       -40.7005  -53.3862   39.2896 H         1 UNK         0.0600 
     34 H34       -41.9052  -53.7282   40.5317 H         1 UNK         0.0600 
     35 H35       -40.2779  -53.2384   40.9923 H         1 UNK         0.0600 
     36 H36       -48.2822  -43.3995   39.9886 H         1 UNK         0.0300 
     37 H37       -48.8199  -42.3208   38.7083 H         1 UNK         0.0300 
     38 H38       -48.1875  -43.9055   38.2822 H         1 UNK         0.0300 
     39 H39       -41.8106  -40.9946   38.7796 H         1 UNK         0.0300 
     40 H40       -40.5399  -41.9498   38.0370 H         1 UNK         0.0300 
     41 H41       -42.1466  -41.9730   37.3260 H         1 UNK         0.0300 
     42 H42       -45.9197  -40.1529   38.8962 H         1 UNK         0.0300 
     43 H43       -45.2139  -40.7505   40.4136 H         1 UNK         0.0300 
     44 H44       -44.4094  -39.4850   39.4928 H         1 UNK         0.0300 
     45 H45       -42.2961  -51.6271   38.2458 H         1 UNK         0.0600 
     46 H46       -43.4836  -51.9641   39.4624 H         1 UNK         0.0600 
     47 H47       -41.8322  -51.3152   41.2518 H         1 UNK         0.0600 
     48 H48       -40.6419  -50.9785   40.0196 H         1 UNK         0.0600 
@<TRIPOS>BOND
     1    1    3 ar   
     2    1    5 ar   
     3    1   25 1    
     4    2    3 ar   
     5    2    6 ar   
     6    2   26 1    
     7    3   10 1    
     8    4    8 ar   
     9    4    9 ar   
    10    4   17 1    
    11    5    7 ar   
    12    5   22 1    
    13    6    7 ar   
    14    6   23 1    
    15    7   24 1    
    16    8   11 1    
    17    8   19 ar   
    18    9   12 1    
    19    9   20 ar   
    20   10   20 1    
    21   10   21 2    
    22   11   27 1    
    23   11   28 1    
    24   11   29 1    
    25   12   30 1    
    26   12   31 1    
    27   12   32 1    
    28   13   18 1    
    29   13   33 1    
    30   13   34 1    
    31   13   35 1    
    32   14   22 1    
    33   14   36 1    
    34   14   37 1    
    35   14   38 1    
    36   15   23 1    
    37   15   39 1    
    38   15   40 1    
    39   15   41 1    
    40   16   24 1    
    41   16   42 1    
    42   16   43 1    
    43   16   44 1    
    44   17   18 1    
    45   17   45 1    
    46   17   46 1    
    47   18   47 1    
    48   18   48 1    
    49   19   20 ar   
@<TRIPOS>SUBSTRUCTURE
     1 UNK         1 GROUP             0       ****    0 ROOT    
@<TRIPOS>MOLECULE
ZINC78547483_12
51   52    1
SMALL
USER_CHARGES


@<TRIPOS>ATOM
      1 C1        -44.8107  -42.4776   39.7453 C.ar      1 UNK        -0.1150 
      2 C2        -42.5624  -43.2592   39.2778 C.ar      1 UNK        -0.1150 
      3 C3        -43.8443  -43.4995   39.8099 C.ar      1 UNK        -0.1150 
      4 C4        -43.4200  -48.2605   39.6487 C.ar      1 UNK        -0.2850 
      5 C5        -44.5183  -41.2304   39.1418 C.ar      1 UNK         0.0850 
      6 C6        -42.2410  -42.0385   38.6574 C.ar      1 UNK         0.0850 
      7 C7        -43.2167  -40.9994   38.6148 C.ar      1 UNK         0.0850 
      8 C8        -42.9447  -47.4793   38.5609 C.ar      1 UNK         0.2230 
      9 C9        -43.9400  -47.3394   40.5220 C.ar      1 UNK         0.0560 
     10 C10       -44.1778  -44.7925   40.5058 C.2       1 UNK         0.7375 
     11 C11       -42.2675  -47.9409   37.3051 C.3       1 UNK        -0.0650 
     12 C12       -44.5744  -47.5974   41.8569 C.3       1 UNK        -0.0650 
     13 C13       -41.7300  -52.5135   39.5671 C.3       1 UNK        -0.1800 
     14 C14       -46.7722  -40.4505   39.5135 C.3       1 UNK         0.1100 
     15 C15       -40.6424  -41.0320   37.1445 C.3       1 UNK         0.1100 
     16 C16       -43.1369  -38.6324   38.8556 C.3       1 UNK         0.1100 
     17 C17       -43.3515  -49.7591   39.7830 C.3       1 UNK        -0.0050 
     18 C18       -42.0445  -51.7118   40.8375 C.3       1 UNK        -0.1200 
     19 C19       -42.1286  -50.1938   40.6068 C.3       1 UNK        -0.1200 
     20 N20       -43.1565  -46.1930   38.7433 N.2       1 UNK        -0.5310 
     21 N21       -43.7655  -46.0765   39.9491 N.pl3     1 UNK         0.0695 
     22 O22       -44.8648  -44.7781   41.5297 O.2       1 UNK        -0.5000 
     23 O23       -45.4566  -40.2228   39.0293 O.3       1 UNK        -0.2850 
     24 O24       -40.9507  -41.9632   38.1708 O.3       1 UNK        -0.2850 
     25 O25       -42.8914  -39.7826   38.0573 O.3       1 UNK        -0.2850 
     26 H26       -45.7815  -42.6818   40.1711 H         1 UNK         0.1150 
     27 H27       -41.8038  -44.0270   39.3309 H         1 UNK         0.1150 
     28 H28       -42.9627  -48.4865   36.6677 H         1 UNK         0.0600 
     29 H29       -41.4328  -48.6027   37.5349 H         1 UNK         0.0600 
     30 H30       -41.8757  -47.1025   36.7282 H         1 UNK         0.0600 
     31 H31       -44.0651  -47.0441   42.6461 H         1 UNK         0.0600 
     32 H32       -44.5308  -48.6530   42.1217 H         1 UNK         0.0600 
     33 H33       -45.6239  -47.3025   41.8540 H         1 UNK         0.0600 
     34 H34       -42.5252  -52.4270   38.8271 H         1 UNK         0.0600 
     35 H35       -41.6151  -53.5729   39.7979 H         1 UNK         0.0600 
     36 H36       -40.8022  -52.1743   39.1056 H         1 UNK         0.0600 
     37 H37       -47.3788  -39.5635   39.3315 H         1 UNK         0.0300 
     38 H38       -46.7759  -40.6356   40.5885 H         1 UNK         0.0300 
     39 H39       -47.2487  -41.2856   38.9983 H         1 UNK         0.0300 
     40 H40       -39.7072  -41.3251   36.6675 H         1 UNK         0.0300 
     41 H41       -41.4097  -41.0082   36.3690 H         1 UNK         0.0300 
     42 H42       -40.4972  -40.0305   37.5502 H         1 UNK         0.0300 
     43 H43       -43.1200  -38.8524   39.9245 H         1 UNK         0.0300 
     44 H44       -42.3630  -37.8907   38.6596 H         1 UNK         0.0300 
     45 H45       -44.0947  -38.1777   38.6023 H         1 UNK         0.0300 
     46 H46       -44.2597  -50.1460   40.2457 H         1 UNK         0.0600 
     47 H47       -43.3106  -50.2231   38.7978 H         1 UNK         0.0600 
     48 H48       -42.9726  -52.0720   41.2828 H         1 UNK         0.0600 
     49 H49       -41.2636  -51.9095   41.5725 H         1 UNK         0.0600 
     50 H50       -41.2135  -49.8416   40.1284 H         1 UNK         0.0600 
     51 H51       -42.1665  -49.6998   41.5786 H         1 UNK         0.0600 
@<TRIPOS>BOND
     1    1    3 ar   
     2    1    5 ar   
     3    1   26 1    
     4    2    3 ar   
     5    2    6 ar   
     6    2   27 1    
     7    3   10 1    
     8    4    8 ar   
     9    4    9 ar   
    10    4   17 1    
    11    5    7 ar   
    12    5   23 1    
    13    6    7 ar   
    14    6   24 1    
    15    7   25 1    
    16    8   11 1    
    17    8   20 ar   
    18    9   12 1    
    19    9   21 ar   
    20   10   21 1    
    21   10   22 2    
    22   11   28 1    
    23   11   29 1    
    24   11   30 1    
    25   12   31 1    
    26   12   32 1    
    27   12   33 1    
    28   13   18 1    
    29   13   34 1    
    30   13   35 1    
    31   13   36 1    
    32   14   23 1    
    33   14   37 1    
    34   14   38 1    
    35   14   39 1    
    36   15   24 1    
    37   15   40 1    
    38   15   41 1    
    39   15   42 1    
    40   16   25 1    
    41   16   43 1    
    42   16   44 1    
    43   16   45 1    
    44   17   19 1    
    45   17   46 1    
    46   17   47 1    
    47   18   19 1    
    48   18   48 1    
    49   18   49 1    
    50   19   50 1    
    51   19   51 1    
    52   20   21 ar   
@<TRIPOS>SUBSTRUCTURE
     1 UNK         1 GROUP             0       ****    0 ROOT    
@<TRIPOS>MOLECULE
ZINC78550976_0
48   49    1
SMALL
USER_CHARGES


@<TRIPOS>ATOM
      1 C1        -10.4281   -8.3074   38.6986 C.ar      1 UNK        -0.1150 
      2 C2         -9.2065   -6.4601   39.7115 C.ar      1 UNK        -0.1150 
      3 C3         -9.5410   -7.8302   39.6875 C.ar      1 UNK        -0.1150 
      4 C4         -7.6491  -12.1321   40.5787 C.ar      1 UNK        -0.2850 
      5 C5        -10.9459   -7.4385   37.7092 C.ar      1 UNK         0.0850 
      6 C6         -9.7157   -5.5701   38.7355 C.ar      1 UNK         0.0850 
      7 C7        -10.5763   -6.0754   37.7320 C.ar      1 UNK         0.0850 
      8 C8         -7.8929  -11.7263   39.2365 C.ar      1 UNK         0.2230 
      9 C9         -8.0538  -11.0503   41.3281 C.ar      1 UNK         0.0560 
     10 C10        -9.0074   -8.7391   40.7627 C.2       1 UNK         0.7375 
     11 C11        -7.6453  -12.4879   37.9679 C.3       1 UNK        -0.0650 
     12 C12        -8.0447  -10.8817   42.8208 C.3       1 UNK        -0.0650 
     13 C13        -8.0859  -14.3056   41.7932 C.3       1 UNK        -0.1800 
     14 C14        -5.7339  -13.3080   41.7419 C.3       1 UNK        -0.1800 
     15 C15       -12.1635   -9.2150   36.6398 C.3       1 UNK         0.1100 
     16 C16        -8.5787   -3.6894   39.7162 C.3       1 UNK         0.1100 
     17 C17       -10.1623   -4.8970   35.7612 C.3       1 UNK         0.1100 
     18 C18        -7.0708  -13.4676   41.0007 C.3       1 UNK         0.0550 
     19 N19        -8.4003  -10.5155   39.1614 N.2       1 UNK        -0.5310 
     20 N20        -8.5069  -10.0716   40.4366 N.pl3     1 UNK         0.0695 
     21 O21        -8.9308   -8.3361   41.9251 O.2       1 UNK        -0.5000 
     22 O22       -11.7978   -7.8448   36.7026 O.3       1 UNK        -0.2850 
     23 O23        -9.4265   -4.2208   38.7091 O.3       1 UNK        -0.2850 
     24 O24       -11.0921   -5.2383   36.7755 O.3       1 UNK        -0.2850 
     25 H25       -10.6965   -9.3526   38.7139 H         1 UNK         0.1150 
     26 H26        -8.5528   -6.1136   40.4978 H         1 UNK         0.1150 
     27 H27        -8.1829  -13.4355   37.9722 H         1 UNK         0.0600 
     28 H28        -7.9705  -11.9267   37.0911 H         1 UNK         0.0600 
     29 H29        -6.5841  -12.7036   37.8464 H         1 UNK         0.0600 
     30 H30        -7.3554  -10.0911   43.1176 H         1 UNK         0.0600 
     31 H31        -9.0377  -10.6277   43.1919 H         1 UNK         0.0600 
     32 H32        -7.7370  -11.7874   43.3359 H         1 UNK         0.0600 
     33 H33        -8.3764  -13.8329   42.7295 H         1 UNK         0.0600 
     34 H34        -7.6778  -15.2870   42.0366 H         1 UNK         0.0600 
     35 H35        -8.9942  -14.4661   41.2113 H         1 UNK         0.0600 
     36 H36        -5.8359  -12.7589   42.6759 H         1 UNK         0.0600 
     37 H37        -5.0101  -12.7743   41.1248 H         1 UNK         0.0600 
     38 H38        -5.3022  -14.2801   41.9819 H         1 UNK         0.0600 
     39 H39       -12.8211   -9.3720   35.7851 H         1 UNK         0.0300 
     40 H40       -12.7065   -9.5240   37.5336 H         1 UNK         0.0300 
     41 H41       -11.2904   -9.8554   36.5062 H         1 UNK         0.0300 
     42 H42        -8.4573   -2.6185   39.5538 H         1 UNK         0.0300 
     43 H43        -7.5867   -4.1418   39.6822 H         1 UNK         0.0300 
     44 H44        -9.0060   -3.8251   40.7106 H         1 UNK         0.0300 
     45 H45       -10.6600   -4.2968   34.9999 H         1 UNK         0.0300 
     46 H46        -9.7660   -5.7907   35.2768 H         1 UNK         0.0300 
     47 H47        -9.3283   -4.3136   36.1520 H         1 UNK         0.0300 
     48 H48        -6.8422  -14.0500   40.1074 H         1 UNK         0.0600 
@<TRIPOS>BOND
     1    1    3 ar   
     2    1    5 ar   
     3    1   25 1    
     4    2    3 ar   
     5    2    6 ar   
     6    2   26 1    
     7    3   10 1    
     8    4    8 ar   
     9    4    9 ar   
    10    4   18 1    
    11    5    7 ar   
    12    5   22 1    
    13    6    7 ar   
    14    6   23 1    
    15    7   24 1    
    16    8   11 1    
    17    8   19 ar   
    18    9   12 1    
    19    9   20 ar   
    20   10   20 1    
    21   10   21 2    
    22   11   27 1    
    23   11   28 1    
    24   11   29 1    
    25   12   30 1    
    26   12   31 1    
    27   12   32 1    
    28   13   18 1    
    29   13   33 1    
    30   13   34 1    
    31   13   35 1    
    32   14   18 1    
    33   14   36 1    
    34   14   37 1    
    35   14   38 1    
    36   15   22 1    
    37   15   39 1    
    38   15   40 1    
    39   15   41 1    
    40   16   23 1    
    41   16   42 1    
    42   16   43 1    
    43   16   44 1    
    44   17   24 1    
    45   17   45 1    
    46   17   46 1    
    47   17   47 1    
    48   18   48 1    
    49   19   20 ar   
@<TRIPOS>SUBSTRUCTURE
     1 UNK         1 GROUP             0       ****    0 ROOT    
@<TRIPOS>MOLECULE
ZINC78551325_0
51   52    1
SMALL
USER_CHARGES


@<TRIPOS>ATOM
      1 C1         -9.0430   -6.9439   38.4736 C.ar      1 UNK        -0.1150 
      2 C2         -7.9370   -5.0923   39.6043 C.ar      1 UNK        -0.1150 
      3 C3         -8.2298   -6.4703   39.5258 C.ar      1 UNK        -0.1150 
      4 C4         -6.3410  -10.7645   40.4624 C.ar      1 UNK        -0.2850 
      5 C5         -9.5262   -6.0630   37.4775 C.ar      1 UNK         0.0850 
      6 C6         -8.4155   -4.1902   38.6242 C.ar      1 UNK         0.0850 
      7 C7         -9.2015   -4.6911   37.5604 C.ar      1 UNK         0.0850 
      8 C8         -6.5322  -10.3652   39.1117 C.ar      1 UNK         0.2230 
      9 C9         -6.7700   -9.6870   41.1950 C.ar      1 UNK         0.0560 
     10 C10        -7.7364   -7.3917   40.6099 C.2       1 UNK         0.7375 
     11 C11        -6.2345  -11.1324   37.8576 C.3       1 UNK        -0.0650 
     12 C12        -6.7932   -9.5446   42.6885 C.3       1 UNK        -0.0650 
     13 C13        -7.9000  -13.4122   40.4066 C.3       1 UNK        -0.1800 
     14 C14        -6.2527  -14.2802   42.1195 C.3       1 UNK        -0.1800 
     15 C15       -10.5971   -7.8471   36.2732 C.3       1 UNK         0.1100 
     16 C16        -7.4142   -2.3012   39.7280 C.3       1 UNK         0.1100 
     17 C17        -8.7209   -3.4995   35.6177 C.3       1 UNK         0.1100 
     18 C18        -5.7835  -12.0777   40.9530 C.3       1 UNK        -0.0050 
     19 C19        -6.8758  -13.0271   41.4874 C.3       1 UNK        -0.0600 
     20 N20        -7.0441   -9.1556   39.0190 N.2       1 UNK        -0.5310 
     21 N21        -7.2043   -8.7131   40.2913 N.pl3     1 UNK         0.0695 
     22 O22        -7.7222   -7.0084   41.7815 O.2       1 UNK        -0.5000 
     23 O23       -10.3023   -6.4653   36.4100 O.3       1 UNK        -0.2850 
     24 O24        -8.1629   -2.8335   38.6459 O.3       1 UNK        -0.2850 
     25 O25        -9.6840   -3.8387   36.6007 O.3       1 UNK        -0.2850 
     26 H26        -9.2842   -7.9952   38.4462 H         1 UNK         0.1150 
     27 H27        -7.3393   -4.7492   40.4354 H         1 UNK         0.1150 
     28 H28        -6.8179  -12.0518   37.8162 H         1 UNK         0.0600 
     29 H29        -6.4690  -10.5510   36.9652 H         1 UNK         0.0600 
     30 H30        -5.1799  -11.4025   37.8083 H         1 UNK         0.0600 
     31 H31        -6.1602   -8.7183   43.0124 H         1 UNK         0.0600 
     32 H32        -7.8062   -9.3627   43.0481 H         1 UNK         0.0600 
     33 H33        -6.4277  -10.4444   43.1813 H         1 UNK         0.0600 
     34 H34        -7.4212  -13.9156   39.5664 H         1 UNK         0.0600 
     35 H35        -8.4198  -12.5358   40.0182 H         1 UNK         0.0600 
     36 H36        -8.6597  -14.0842   40.8068 H         1 UNK         0.0600 
     37 H37        -5.6906  -14.8593   41.3859 H         1 UNK         0.0600 
     38 H38        -5.5706  -14.0170   42.9287 H         1 UNK         0.0600 
     39 H39        -7.0189  -14.9323   42.5400 H         1 UNK         0.0600 
     40 H40       -11.1841   -8.0007   35.3679 H         1 UNK         0.0300 
     41 H41       -11.1870   -8.2132   37.1145 H         1 UNK         0.0300 
     42 H42        -9.6874   -8.4423   36.1812 H         1 UNK         0.0300 
     43 H43        -7.3171   -1.2231   39.6009 H         1 UNK         0.0300 
     44 H44        -6.4076   -2.7200   39.7614 H         1 UNK         0.0300 
     45 H45        -7.9128   -2.4767   40.6822 H         1 UNK         0.0300 
     46 H46        -9.1848   -2.8749   34.8546 H         1 UNK         0.0300 
     47 H47        -8.3301   -4.3927   35.1279 H         1 UNK         0.0300 
     48 H48        -7.8865   -2.9422   36.0446 H         1 UNK         0.0300 
     49 H49        -5.2281  -12.5807   40.1605 H         1 UNK         0.0600 
     50 H50        -5.0492  -11.8972   41.7389 H         1 UNK         0.0600 
     51 H51        -7.4171  -12.5070   42.2789 H         1 UNK         0.0600 
@<TRIPOS>BOND
     1    1    3 ar   
     2    1    5 ar   
     3    1   26 1    
     4    2    3 ar   
     5    2    6 ar   
     6    2   27 1    
     7    3   10 1    
     8    4    8 ar   
     9    4    9 ar   
    10    4   18 1    
    11    5    7 ar   
    12    5   23 1    
    13    6    7 ar   
    14    6   24 1    
    15    7   25 1    
    16    8   11 1    
    17    8   20 ar   
    18    9   12 1    
    19    9   21 ar   
    20   10   21 1    
    21   10   22 2    
    22   11   28 1    
    23   11   29 1    
    24   11   30 1    
    25   12   31 1    
    26   12   32 1    
    27   12   33 1    
    28   13   19 1    
    29   13   34 1    
    30   13   35 1    
    31   13   36 1    
    32   14   19 1    
    33   14   37 1    
    34   14   38 1    
    35   14   39 1    
    36   15   23 1    
    37   15   40 1    
    38   15   41 1    
    39   15   42 1    
    40   16   24 1    
    41   16   43 1    
    42   16   44 1    
    43   16   45 1    
    44   17   25 1    
    45   17   46 1    
    46   17   47 1    
    47   17   48 1    
    48   18   19 1    
    49   18   49 1    
    50   18   50 1    
    51   19   51 1    
    52   20   21 ar   
@<TRIPOS>SUBSTRUCTURE
     1 UNK         1 GROUP             0       ****    0 ROOT    
@<TRIPOS>MOLECULE
ZINC78551651_91
54   55    1
SMALL
USER_CHARGES


@<TRIPOS>ATOM
      1 C1         -8.4510   -6.1946   38.4699 C.ar      1 UNK        -0.1150 
      2 C2         -7.3622   -4.3444   39.6182 C.ar      1 UNK        -0.1150 
      3 C3         -7.6659   -5.7195   39.5425 C.ar      1 UNK        -0.1150 
      4 C4         -5.8179  -10.0121   40.5540 C.ar      1 UNK        -0.2850 
      5 C5         -8.8945   -5.3199   37.4493 C.ar      1 UNK         0.0850 
      6 C6         -7.7962   -3.4494   38.6117 C.ar      1 UNK         0.0850 
      7 C7         -8.5486   -3.9492   37.5257 C.ar      1 UNK         0.0850 
      8 C8         -5.9546   -9.6096   39.1965 C.ar      1 UNK         0.2230 
      9 C9         -6.2745   -8.9342   41.2700 C.ar      1 UNK         0.0560 
     10 C10        -7.2142   -6.6369   40.6479 C.2       1 UNK         0.7375 
     11 C11        -5.6136  -10.3663   37.9472 C.3       1 UNK        -0.0650 
     12 C12        -6.3563   -8.7914   42.7615 C.3       1 UNK        -0.0650 
     13 C13        -6.7429  -13.6602   39.4284 C.3       1 UNK        -0.1800 
     14 C14        -8.6203  -13.4080   41.0919 C.3       1 UNK        -0.1800 
     15 C15       -10.0109   -7.1022   36.2791 C.3       1 UNK         0.1100 
     16 C16        -6.7898   -1.5612   39.7106 C.3       1 UNK         0.1100 
     17 C17        -8.2744   -3.1956   35.3291 C.3       1 UNK         0.1100 
     18 C18        -5.2849  -11.3263   41.0730 C.3       1 UNK        -0.0050 
     19 C19        -6.4015  -12.2748   41.5529 C.3       1 UNK        -0.1200 
     20 C20        -7.3964  -12.7267   40.4614 C.3       1 UNK        -0.0600 
     21 N21        -6.4651   -8.4013   39.0862 N.2       1 UNK        -0.5310 
     22 N22        -6.6728   -7.9593   40.3513 N.pl3     1 UNK         0.0695 
     23 O23        -7.2413   -6.2502   41.8181 O.2       1 UNK        -0.5000 
     24 O24        -9.6655   -5.7288   36.3798 O.3       1 UNK        -0.2850 
     25 O25        -7.5188   -2.0976   38.6173 O.3       1 UNK        -0.2850 
     26 O26        -8.9663   -3.0675   36.5604 O.3       1 UNK        -0.2850 
     27 H27        -8.7038   -7.2434   38.4493 H         1 UNK         0.1150 
     28 H28        -6.7873   -3.9983   40.4639 H         1 UNK         0.1150 
     29 H29        -6.4204  -11.0453   37.6730 H         1 UNK         0.0600 
     30 H30        -5.4482   -9.6919   37.1066 H         1 UNK         0.0600 
     31 H31        -4.7064  -10.9551   38.0764 H         1 UNK         0.0600 
     32 H32        -5.7296   -7.9706   43.1106 H         1 UNK         0.0600 
     33 H33        -7.3810   -8.6010   43.0810 H         1 UNK         0.0600 
     34 H34        -6.0194   -9.6944   43.2687 H         1 UNK         0.0600 
     35 H35        -6.3603  -14.5670   39.8981 H         1 UNK         0.0600 
     36 H36        -5.9121  -13.1795   38.9138 H         1 UNK         0.0600 
     37 H37        -7.4606  -13.9621   38.6649 H         1 UNK         0.0600 
     38 H38        -8.3383  -14.3077   41.6401 H         1 UNK         0.0600 
     39 H39        -9.3465  -13.6968   40.3312 H         1 UNK         0.0600 
     40 H40        -9.1295  -12.7404   41.7878 H         1 UNK         0.0600 
     41 H41       -10.6014   -7.2580   35.3765 H         1 UNK         0.0300 
     42 H42       -10.6162   -7.4234   37.1277 H         1 UNK         0.0300 
     43 H43        -9.1243   -7.7338   36.2058 H         1 UNK         0.0300 
     44 H44        -6.6719   -0.4870   39.5697 H         1 UNK         0.0300 
     45 H45        -5.7917   -1.9961   39.7762 H         1 UNK         0.0300 
     46 H46        -7.3152   -1.7138   40.6543 H         1 UNK         0.0300 
     47 H47        -8.5443   -2.3664   34.6754 H         1 UNK         0.0300 
     48 H48        -8.5283   -4.1207   34.8117 H         1 UNK         0.0300 
     49 H49        -7.1939   -3.1644   35.4785 H         1 UNK         0.0300 
     50 H50        -4.6012  -11.1496   41.9037 H         1 UNK         0.0600 
     51 H51        -4.6761  -11.8275   40.3216 H         1 UNK         0.0600 
     52 H52        -5.9487  -13.1551   42.0114 H         1 UNK         0.0600 
     53 H53        -6.9513  -11.7785   42.3534 H         1 UNK         0.0600 
     54 H54        -7.7620  -11.8425   39.9371 H         1 UNK         0.0600 
@<TRIPOS>BOND
     1    1    3 ar   
     2    1    5 ar   
     3    1   27 1    
     4    2    3 ar   
     5    2    6 ar   
     6    2   28 1    
     7    3   10 1    
     8    4    8 ar   
     9    4    9 ar   
    10    4   18 1    
    11    5    7 ar   
    12    5   24 1    
    13    6    7 ar   
    14    6   25 1    
    15    7   26 1    
    16    8   11 1    
    17    8   21 ar   
    18    9   12 1    
    19    9   22 ar   
    20   10   22 1    
    21   10   23 2    
    22   11   29 1    
    23   11   30 1    
    24   11   31 1    
    25   12   32 1    
    26   12   33 1    
    27   12   34 1    
    28   13   20 1    
    29   13   35 1    
    30   13   36 1    
    31   13   37 1    
    32   14   20 1    
    33   14   38 1    
    34   14   39 1    
    35   14   40 1    
    36   15   24 1    
    37   15   41 1    
    38   15   42 1    
    39   15   43 1    
    40   16   25 1    
    41   16   44 1    
    42   16   45 1    
    43   16   46 1    
    44   17   26 1    
    45   17   47 1    
    46   17   48 1    
    47   17   49 1    
    48   18   19 1    
    49   18   50 1    
    50   18   51 1    
    51   19   20 1    
    52   19   52 1    
    53   19   53 1    
    54   20   54 1    
    55   21   22 ar   
@<TRIPOS>SUBSTRUCTURE
     1 UNK         1 GROUP             0       ****    0 ROOT    
@<TRIPOS>MOLECULE
ZINC78552197_2
51   52    1
SMALL
USER_CHARGES


@<TRIPOS>ATOM
      1 C1        -33.9867  -34.2065   39.3407 C.ar      1 UNK        -0.1150 
      2 C2        -32.3825  -32.6751   40.3208 C.ar      1 UNK        -0.1150 
      3 C3        -32.8503  -33.9908   40.1438 C.ar      1 UNK        -0.1150 
      4 C4        -31.3127  -38.5114   39.8163 C.ar      1 UNK        -0.2850 
      5 C5        -34.6350  -33.1466   38.6811 C.ar      1 UNK         0.0850 
      6 C6        -33.0019  -31.5839   39.6645 C.ar      1 UNK         0.0850 
      7 C7        -34.1169  -31.8234   38.8125 C.ar      1 UNK         0.0850 
      8 C8        -31.8026  -37.8402   38.6559 C.ar      1 UNK         0.2230 
      9 C9        -31.3893  -37.5549   40.8023 C.ar      1 UNK         0.0560 
     10 C10       -32.1869  -35.1211   40.8847 C.2       1 UNK         0.7375 
     11 C11       -31.9550  -38.3391   37.2483 C.3       1 UNK        -0.0650 
     12 C12       -30.9922  -37.6691   42.2473 C.3       1 UNK        -0.0650 
     13 C13       -31.5314  -42.4054   39.7374 C.3       1 UNK        -0.1800 
     14 C14       -29.3966  -40.0571   39.3399 C.3       1 UNK        -0.1800 
     15 C15       -36.6666  -32.5614   37.4869 C.3       1 UNK         0.1100 
     16 C16       -31.4983  -30.0169   40.7186 C.3       1 UNK         0.1100 
     17 C17       -33.8605  -29.9578   37.3536 C.3       1 UNK         0.1100 
     18 C18       -31.7996  -40.9515   39.3231 C.3       1 UNK        -0.1200 
     19 C19       -30.8091  -39.9380   39.9336 C.3       1 UNK         0.0550 
     20 N20       -32.1644  -36.6016   38.9125 N.2       1 UNK        -0.5310 
     21 N21       -31.9252  -36.3984   40.2283 N.pl3     1 UNK         0.0695 
     22 O22       -31.8005  -34.9513   42.0432 O.2       1 UNK        -0.5000 
     23 O23       -35.7312  -33.5309   37.9321 O.3       1 UNK        -0.2850 
     24 O24       -32.5790  -30.2800   39.8355 O.3       1 UNK        -0.2850 
     25 O25       -34.7144  -30.7833   38.1350 O.3       1 UNK        -0.2850 
     26 H26       -34.3801  -35.2063   39.2238 H         1 UNK         0.1150 
     27 H27       -31.5363  -32.5304   40.9752 H         1 UNK         0.1150 
     28 H28       -32.8538  -38.9466   37.1471 H         1 UNK         0.0600 
     29 H29       -31.1014  -38.9429   36.9448 H         1 UNK         0.0600 
     30 H30       -32.0355  -37.5137   36.5403 H         1 UNK         0.0600 
     31 H31       -31.8415  -37.4716   42.9017 H         1 UNK         0.0600 
     32 H32       -30.6156  -38.6582   42.4971 H         1 UNK         0.0600 
     33 H33       -30.2019  -36.9586   42.4898 H         1 UNK         0.0600 
     34 H34       -32.2999  -43.0675   39.3380 H         1 UNK         0.0600 
     35 H35       -31.5337  -42.5164   40.8221 H         1 UNK         0.0600 
     36 H36       -30.5709  -42.7599   39.3636 H         1 UNK         0.0600 
     37 H37       -28.9836  -41.0557   39.4787 H         1 UNK         0.0600 
     38 H38       -28.7144  -39.3573   39.8237 H         1 UNK         0.0600 
     39 H39       -29.3865  -39.8406   38.2722 H         1 UNK         0.0600 
     40 H40       -36.2705  -31.9814   36.6531 H         1 UNK         0.0300 
     41 H41       -36.9728  -31.8924   38.2923 H         1 UNK         0.0300 
     42 H42       -37.5619  -33.0696   37.1292 H         1 UNK         0.0300 
     43 H43       -31.3114  -28.9436   40.7462 H         1 UNK         0.0300 
     44 H44       -31.7274  -30.3363   41.7363 H         1 UNK         0.0300 
     45 H45       -30.5806  -30.5015   40.3824 H         1 UNK         0.0300 
     46 H46       -32.9591  -30.4782   37.0248 H         1 UNK         0.0300 
     47 H47       -33.5726  -29.0620   37.9039 H         1 UNK         0.0300 
     48 H48       -34.3965  -29.6332   36.4620 H         1 UNK         0.0300 
     49 H49       -31.8040  -40.8836   38.2360 H         1 UNK         0.0600 
     50 H50       -32.8094  -40.6955   39.6485 H         1 UNK         0.0600 
     51 H51       -30.7263  -40.2052   40.9857 H         1 UNK         0.0600 
@<TRIPOS>BOND
     1    1    3 ar   
     2    1    5 ar   
     3    1   26 1    
     4    2    3 ar   
     5    2    6 ar   
     6    2   27 1    
     7    3   10 1    
     8    4    8 ar   
     9    4    9 ar   
    10    4   19 1    
    11    5    7 ar   
    12    5   23 1    
    13    6    7 ar   
    14    6   24 1    
    15    7   25 1    
    16    8   11 1    
    17    8   20 ar   
    18    9   12 1    
    19    9   21 ar   
    20   10   21 1    
    21   10   22 2    
    22   11   28 1    
    23   11   29 1    
    24   11   30 1    
    25   12   31 1    
    26   12   32 1    
    27   12   33 1    
    28   13   18 1    
    29   13   34 1    
    30   13   35 1    
    31   13   36 1    
    32   14   19 1    
    33   14   37 1    
    34   14   38 1    
    35   14   39 1    
    36   15   23 1    
    37   15   40 1    
    38   15   41 1    
    39   15   42 1    
    40   16   24 1    
    41   16   43 1    
    42   16   44 1    
    43   16   45 1    
    44   17   25 1    
    45   17   46 1    
    46   17   47 1    
    47   17   48 1    
    48   18   19 1    
    49   18   49 1    
    50   18   50 1    
    51   19   51 1    
    52   20   21 ar   
@<TRIPOS>SUBSTRUCTURE
     1 UNK         1 GROUP             0       ****    0 ROOT    
@<TRIPOS>MOLECULE
ZINC78552900_30
46   47    1
SMALL
USER_CHARGES


@<TRIPOS>ATOM
      1 C1        -44.0337  -42.4416   40.3167 C.ar      1 UNK        -0.1150 
      2 C2        -45.9752  -43.6061   39.4414 C.ar      1 UNK        -0.1150 
      3 C3        -44.7688  -43.6344   40.1704 C.ar      1 UNK        -0.1150 
      4 C4        -44.1200  -48.3457   39.7069 C.ar      1 UNK        -0.2850 
      5 C5        -44.4545  -41.2421   39.7125 C.ar      1 UNK         0.0850 
      6 C6        -46.4295  -42.4213   38.8343 C.ar      1 UNK         0.0850 
      7 C7        -45.6435  -41.2385   38.9287 C.ar      1 UNK         0.0850 
      8 C8        -44.5571  -47.5845   38.5890 C.ar      1 UNK         0.2230 
      9 C9        -43.9730  -47.4181   40.7074 C.ar      1 UNK         0.0560 
     10 C10       -41.8895  -51.1098   38.8589 C.2       1 UNK        -0.2300 
     11 C11       -42.3985  -50.0876   39.5628 C.2       1 UNK        -0.1150 
     12 C12       -44.2984  -44.8854   40.8617 C.2       1 UNK         0.7375 
     13 C13       -44.8769  -48.0587   37.2028 C.3       1 UNK        -0.0650 
     14 C14       -43.5275  -47.6546   42.1205 C.3       1 UNK        -0.0650 
     15 C15       -44.2000  -38.8553   39.9038 C.3       1 UNK         0.1100 
     16 C16       -48.5159  -41.4061   38.2578 C.3       1 UNK         0.1100 
     17 C17       -45.5898  -40.1733   36.8660 C.3       1 UNK         0.1100 
     18 C18       -43.8800  -49.8323   39.7494 C.3       1 UNK        -0.0050 
     19 N19       -44.6759  -46.3046   38.8742 N.2       1 UNK        -0.5310 
     20 N20       -44.3203  -46.1727   40.1761 N.pl3     1 UNK         0.0695 
     21 O21       -43.8344  -44.8220   42.0021 O.2       1 UNK        -0.5000 
     22 O22       -43.6290  -40.1557   39.9154 O.3       1 UNK        -0.2850 
     23 O23       -47.6236  -42.5076   38.1525 O.3       1 UNK        -0.2850 
     24 O24       -46.0037  -40.1196   38.2227 O.3       1 UNK        -0.2850 
     25 H25       -43.1252  -42.4433   40.9025 H         1 UNK         0.1150 
     26 H26       -46.5703  -44.5032   39.3462 H         1 UNK         0.1150 
     27 H27       -42.5284  -51.8255   38.3623 H         1 UNK         0.1150 
     28 H28       -40.8212  -51.2442   38.7693 H         1 UNK         0.1150 
     29 H29       -41.7242  -49.3990   40.0530 H         1 UNK         0.1150 
     30 H30       -44.1390  -48.7828   36.8586 H         1 UNK         0.0600 
     31 H31       -44.8868  -47.2336   36.4900 H         1 UNK         0.0600 
     32 H32       -45.8556  -48.5367   37.1730 H         1 UNK         0.0600 
     33 H33       -42.5967  -47.1270   42.3297 H         1 UNK         0.0600 
     34 H34       -44.2814  -47.3148   42.8308 H         1 UNK         0.0600 
     35 H35       -43.3515  -48.7122   42.3120 H         1 UNK         0.0600 
     36 H36       -44.2676  -38.4627   38.8892 H         1 UNK         0.0300 
     37 H37       -43.5576  -38.1801   40.4687 H         1 UNK         0.0300 
     38 H38       -45.1868  -38.8337   40.3691 H         1 UNK         0.0300 
     39 H39       -48.3514  -40.6862   37.4565 H         1 UNK         0.0300 
     40 H40       -49.5400  -41.7666   38.1634 H         1 UNK         0.0300 
     41 H41       -48.4357  -40.8949   39.2186 H         1 UNK         0.0300 
     42 H42       -44.5063  -40.2764   36.7893 H         1 UNK         0.0300 
     43 H43       -45.8761  -39.2519   36.3595 H         1 UNK         0.0300 
     44 H44       -46.0562  -41.0058   36.3371 H         1 UNK         0.0300 
     45 H45       -44.4494  -50.3606   38.9837 H         1 UNK         0.0600 
     46 H46       -44.1892  -50.2551   40.7055 H         1 UNK         0.0600 
@<TRIPOS>BOND
     1    1    3 ar   
     2    1    5 ar   
     3    1   25 1    
     4    2    3 ar   
     5    2    6 ar   
     6    2   26 1    
     7    3   12 1    
     8    4    8 ar   
     9    4    9 ar   
    10    4   18 1    
    11    5    7 ar   
    12    5   22 1    
    13    6    7 ar   
    14    6   23 1    
    15    7   24 1    
    16    8   13 1    
    17    8   19 ar   
    18    9   14 1    
    19    9   20 ar   
    20   10   11 2    
    21   10   27 1    
    22   10   28 1    
    23   11   18 1    
    24   11   29 1    
    25   12   20 1    
    26   12   21 2    
    27   13   30 1    
    28   13   31 1    
    29   13   32 1    
    30   14   33 1    
    31   14   34 1    
    32   14   35 1    
    33   15   22 1    
    34   15   36 1    
    35   15   37 1    
    36   15   38 1    
    37   16   23 1    
    38   16   39 1    
    39   16   40 1    
    40   16   41 1    
    41   17   24 1    
    42   17   42 1    
    43   17   43 1    
    44   17   44 1    
    45   18   45 1    
    46   18   46 1    
    47   19   20 ar   
@<TRIPOS>SUBSTRUCTURE
     1 UNK         1 GROUP             0       ****    0 ROOT    
@<TRIPOS>MOLECULE
ZINC78553315_106
49   50    1
SMALL
USER_CHARGES


@<TRIPOS>ATOM
      1 C1        -13.0655  -11.6228   38.8175 C.ar      1 UNK        -0.1150 
      2 C2        -12.0350  -10.0266   40.3230 C.ar      1 UNK        -0.1150 
      3 C3        -12.3008  -11.3626   39.9716 C.ar      1 UNK        -0.1150 
      4 C4        -10.3290  -15.7153   40.1339 C.ar      1 UNK        -0.2850 
      5 C5        -13.5132  -10.5696   37.9835 C.ar      1 UNK         0.0850 
      6 C6        -12.4766   -8.9533   39.5289 C.ar      1 UNK         0.0850 
      7 C7        -13.1923   -9.2244   38.3246 C.ar      1 UNK         0.0850 
      8 C8        -10.4981  -15.0684   38.8802 C.ar      1 UNK         0.2230 
      9 C9        -10.8240  -14.8162   41.0455 C.ar      1 UNK         0.0560 
     10 C10       -10.4021  -19.1779   39.1621 C.2       1 UNK        -0.2300 
     11 C11       -11.8383  -12.4722   40.8779 C.2       1 UNK         0.7375 
     12 C12       -10.7378  -18.1615   39.9732 C.2       1 UNK         0.0000 
     13 C13       -10.1422  -15.5758   37.5148 C.3       1 UNK        -0.0650 
     14 C14       -10.9152  -14.9673   42.5363 C.3       1 UNK        -0.0650 
     15 C15       -12.1326  -18.0431   40.5620 C.3       1 UNK        -0.1800 
     16 C16       -14.5521  -12.1343   36.4673 C.3       1 UNK         0.1100 
     17 C17       -12.8045   -6.5500   39.5514 C.3       1 UNK         0.1100 
     18 C18       -13.2848   -8.2874   36.1306 C.3       1 UNK         0.1100 
     19 C19        -9.7344  -17.0843   40.3617 C.3       1 UNK        -0.0050 
     20 N20       -11.0462  -13.8780   39.0033 N.2       1 UNK        -0.5310 
     21 N21       -11.2577  -13.6950   40.3310 N.pl3     1 UNK         0.0695 
     22 O22       -11.8946  -12.3318   42.1010 O.2       1 UNK        -0.5000 
     23 O23       -14.2775  -10.7958   36.8551 O.3       1 UNK        -0.2850 
     24 O24       -12.1260   -7.7075   40.0127 O.3       1 UNK        -0.2850 
     25 O25       -13.5822   -8.1784   37.5163 O.3       1 UNK        -0.2850 
     26 H26       -13.2988  -12.6513   38.5901 H         1 UNK         0.1150 
     27 H27       -11.4819   -9.8139   41.2273 H         1 UNK         0.1150 
     28 H28        -9.4070  -19.2643   38.7504 H         1 UNK         0.1150 
     29 H29       -11.1166  -19.9424   38.8948 H         1 UNK         0.1150 
     30 H30       -10.7523  -16.4398   37.2527 H         1 UNK         0.0600 
     31 H31       -10.2964  -14.8145   36.7496 H         1 UNK         0.0600 
     32 H32        -9.0968  -15.8797   37.4731 H         1 UNK         0.0600 
     33 H33       -10.2966  -14.2257   43.0420 H         1 UNK         0.0600 
     34 H34       -11.9429  -14.8474   42.8794 H         1 UNK         0.0600 
     35 H35       -10.5816  -15.9499   42.8644 H         1 UNK         0.0600 
     36 H36       -12.0786  -17.9664   41.6479 H         1 UNK         0.0600 
     37 H37       -12.6409  -17.1571   40.1805 H         1 UNK         0.0600 
     38 H38       -12.7457  -18.9101   40.3153 H         1 UNK         0.0600 
     39 H39       -15.1227  -12.1270   35.5388 H         1 UNK         0.0300 
     40 H40       -15.1522  -12.6522   37.2166 H         1 UNK         0.0300 
     41 H41       -13.6344  -12.6954   36.2843 H         1 UNK         0.0300 
     42 H42       -13.8865   -6.6882   39.5410 H         1 UNK         0.0300 
     43 H43       -12.4592   -6.2575   38.5596 H         1 UNK         0.0300 
     44 H44       -12.5889   -5.7206   40.2245 H         1 UNK         0.0300 
     45 H45       -13.0342   -7.3010   35.7412 H         1 UNK         0.0300 
     46 H46       -14.1514   -8.6469   35.5755 H         1 UNK         0.0300 
     47 H47       -12.4365   -8.9448   35.9315 H         1 UNK         0.0300 
     48 H48        -8.8149  -17.2093   39.7887 H         1 UNK         0.0600 
     49 H49        -9.4531  -17.2381   41.4027 H         1 UNK         0.0600 
@<TRIPOS>BOND
     1    1    3 ar   
     2    1    5 ar   
     3    1   26 1    
     4    2    3 ar   
     5    2    6 ar   
     6    2   27 1    
     7    3   11 1    
     8    4    8 ar   
     9    4    9 ar   
    10    4   19 1    
    11    5    7 ar   
    12    5   23 1    
    13    6    7 ar   
    14    6   24 1    
    15    7   25 1    
    16    8   13 1    
    17    8   20 ar   
    18    9   14 1    
    19    9   21 ar   
    20   10   12 2    
    21   10   28 1    
    22   10   29 1    
    23   11   21 1    
    24   11   22 2    
    25   12   15 1    
    26   12   19 1    
    27   13   30 1    
    28   13   31 1    
    29   13   32 1    
    30   14   33 1    
    31   14   34 1    
    32   14   35 1    
    33   15   36 1    
    34   15   37 1    
    35   15   38 1    
    36   16   23 1    
    37   16   39 1    
    38   16   40 1    
    39   16   41 1    
    40   17   24 1    
    41   17   42 1    
    42   17   43 1    
    43   17   44 1    
    44   18   25 1    
    45   18   45 1    
    46   18   46 1    
    47   18   47 1    
    48   19   48 1    
    49   19   49 1    
    50   20   21 ar   
@<TRIPOS>SUBSTRUCTURE
     1 UNK         1 GROUP             0       ****    0 ROOT    
@<TRIPOS>MOLECULE
ZINC78615487_13
50   52    1
SMALL
USER_CHARGES


@<TRIPOS>ATOM
      1 C1        -24.0233  -31.9957   36.6575 C.ar      1 UNK        -0.1150 
      2 C2        -23.9192  -33.2512   37.2739 C.ar      1 UNK        -0.1150 
      3 C3        -25.1620  -31.2034   36.8793 C.ar      1 UNK        -0.1150 
      4 C4        -24.9530  -33.7105   38.1083 C.ar      1 UNK        -0.1150 
      5 C5        -29.9451  -28.5426   36.8672 C.ar      1 UNK        -0.1150 
      6 C6        -28.3817  -28.0338   38.6537 C.ar      1 UNK        -0.1150 
      7 C7        -28.7495  -28.8285   37.5497 C.ar      1 UNK        -0.1150 
      8 C8        -26.2238  -31.6582   37.7052 C.ar      1 UNK        -0.0383 
      9 C9        -26.1156  -32.9328   38.3367 C.ar      1 UNK         0.2100 
     10 C10       -30.7996  -27.5056   37.2838 C.ar      1 UNK         0.0850 
     11 C11       -29.2131  -26.9770   39.0969 C.ar      1 UNK         0.0850 
     12 C12       -30.4189  -26.6953   38.3954 C.ar      1 UNK         0.0850 
     13 C13       -27.8562  -29.9361   37.0597 C.2       1 UNK         0.6150 
     14 C14       -28.1078  -31.1265   39.2017 C.3       1 UNK        -0.0500 
     15 C15       -28.3753  -32.6282   39.2833 C.3       1 UNK         0.0900 
     16 C16       -26.2530  -34.4591   41.2404 C.3       1 UNK        -0.1800 
     17 C17       -33.0286  -26.5878   36.9883 C.3       1 UNK         0.1100 
     18 C18       -27.7299  -26.4960   40.9408 C.3       1 UNK         0.1100 
     19 C19       -30.6072  -24.3756   38.8819 C.3       1 UNK         0.1100 
     20 C20       -27.0373  -34.6509   39.9382 C.3       1 UNK         0.0900 
     21 N21       -27.3675  -30.8250   37.9676 N.am      1 UNK        -0.0317 
     22 N22       -27.1474  -33.4043   39.1846 N.pl3     1 UNK        -0.6300 
     23 O23       -27.6349  -30.0049   35.8501 O.2       1 UNK        -0.5000 
     24 O24       -31.9434  -27.3726   36.5201 O.3       1 UNK        -0.2850 
     25 O25       -28.9104  -26.2101   40.2049 O.3       1 UNK        -0.2850 
     26 O26       -31.2250  -25.6533   38.7962 O.3       1 UNK        -0.2850 
     27 H27       -23.2292  -31.6359   36.0189 H         1 UNK         0.1150 
     28 H28       -23.0439  -33.8629   37.1115 H         1 UNK         0.1150 
     29 H29       -25.2004  -30.2344   36.4037 H         1 UNK         0.1150 
     30 H30       -24.8209  -34.6756   38.5686 H         1 UNK         0.1150 
     31 H31       -30.2215  -29.1367   36.0070 H         1 UNK         0.1150 
     32 H32       -27.4505  -28.2582   39.1505 H         1 UNK         0.1150 
     33 H33       -29.0701  -30.6210   39.2810 H         1 UNK         0.0600 
     34 H34       -27.5124  -30.8030   40.0560 H         1 UNK         0.0600 
     35 H35       -28.8839  -32.8564   40.2210 H         1 UNK         0.0600 
     36 H36       -29.0468  -32.9339   38.4794 H         1 UNK         0.0600 
     37 H37       -25.2306  -34.1340   41.0467 H         1 UNK         0.0600 
     38 H38       -26.7257  -33.7113   41.8774 H         1 UNK         0.0600 
     39 H39       -26.2034  -35.3913   41.8031 H         1 UNK         0.0600 
     40 H40       -32.8094  -25.5222   36.9151 H         1 UNK         0.0300 
     41 H41       -33.9004  -26.7803   36.3636 H         1 UNK         0.0300 
     42 H42       -33.3013  -26.8413   38.0137 H         1 UNK         0.0300 
     43 H43       -27.6607  -25.8115   41.7861 H         1 UNK         0.0300 
     44 H44       -26.8362  -26.3563   40.3314 H         1 UNK         0.0300 
     45 H45       -27.7432  -27.5107   41.3411 H         1 UNK         0.0300 
     46 H46       -30.2974  -24.1585   39.9041 H         1 UNK         0.0300 
     47 H47       -29.7425  -24.2825   38.2223 H         1 UNK         0.0300 
     48 H48       -31.3265  -23.6106   38.5909 H         1 UNK         0.0300 
     49 H49       -26.6052  -35.4447   39.3294 H         1 UNK         0.0600 
     50 H50       -28.0406  -35.0037   40.1814 H         1 UNK         0.0600 
@<TRIPOS>BOND
     1    1    2 ar   
     2    1    3 ar   
     3    1   27 1    
     4    2    4 ar   
     5    2   28 1    
     6    3    8 ar   
     7    3   29 1    
     8    4    9 ar   
     9    4   30 1    
    10    5    7 ar   
    11    5   10 ar   
    12    5   31 1    
    13    6    7 ar   
    14    6   11 ar   
    15    6   32 1    
    16    7   13 1    
    17    8    9 ar   
    18    8   21 1    
    19    9   22 1    
    20   10   12 ar   
    21   10   24 1    
    22   11   12 ar   
    23   11   25 1    
    24   12   26 1    
    25   13   21 am   BACKBONE|DICT|INTERRES
    26   13   23 2    
    27   14   15 1    
    28   14   21 1    
    29   14   33 1    
    30   14   34 1    
    31   15   22 1    
    32   15   35 1    
    33   15   36 1    
    34   16   20 1    
    35   16   37 1    
    36   16   38 1    
    37   16   39 1    
    38   17   24 1    
    39   17   40 1    
    40   17   41 1    
    41   17   42 1    
    42   18   25 1    
    43   18   43 1    
    44   18   44 1    
    45   18   45 1    
    46   19   26 1    
    47   19   46 1    
    48   19   47 1    
    49   19   48 1    
    50   20   22 1    
    51   20   49 1    
    52   20   50 1    
@<TRIPOS>SUBSTRUCTURE
     1 UNK         1 GROUP             0       ****    0 ROOT    
@<TRIPOS>MOLECULE
ZINC78762786_149
43   45    1
SMALL
USER_CHARGES


@<TRIPOS>ATOM
      1 C1         -6.5548  -14.1674   35.1535 C.ar      1 UNK        -0.1150 
      2 C2         -6.4281  -14.9755   36.2990 C.ar      1 UNK        -0.1150 
      3 C3         -6.9170  -12.8141   35.2870 C.ar      1 UNK        -0.1150 
      4 C4        -10.3021   -5.5609   39.8601 C.ar      1 UNK        -0.1150 
      5 C5         -6.6615  -14.4314   37.5778 C.ar      1 UNK        -0.1150 
      6 C6         -7.1503  -12.2697   36.5651 C.ar      1 UNK        -0.1150 
      7 C7        -10.7515   -4.7294   38.8207 C.ar      1 UNK        -0.1150 
      8 C8         -7.3441  -12.1556   41.2061 C.ar      1 UNK        -0.3200 
      9 C9        -10.2758   -7.4363   38.3155 C.ar      1 UNK        -0.1150 
     10 C10        -6.9287  -13.0414   40.2526 C.ar      1 UNK         0.0360 
     11 C11       -10.0539   -6.9205   39.6097 C.ar      1 UNK        -0.0418 
     12 C12        -7.0231  -13.0716   37.7242 C.ar      1 UNK         0.0731 
     13 C13       -10.9613   -5.2254   37.5181 C.ar      1 UNK         0.0850 
     14 C14       -10.7264   -6.6098   37.2524 C.ar      1 UNK         0.0850 
     15 C15        -7.9205  -11.0900   40.4587 C.ar      1 UNK         0.2230 
     16 C16        -8.4977   -9.9037   41.1489 C.2       1 UNK         0.6250 
     17 C17       -11.4725   -4.5663   35.2327 C.3       1 UNK         0.1100 
     18 C18       -10.6671   -8.4851   35.7250 C.3       1 UNK         0.1100 
     19 C19        -9.5803   -7.8165   40.7424 C.3       1 UNK         0.2318 
     20 N20        -7.8633  -11.3168   39.1516 N.2       1 UNK        -0.5310 
     21 N21        -7.2554  -12.5186   39.0135 N.pl3     1 UNK         0.1189 
     22 O22        -8.5432   -9.7697   42.3740 O.2       1 UNK        -0.4300 
     23 O23       -11.3973   -4.2712   36.6182 O.3       1 UNK        -0.2850 
     24 O24       -10.9507   -7.1174   35.9871 O.3       1 UNK        -0.2850 
     25 O25        -8.9639   -9.0014   40.2747 O.3       1 UNK        -0.3300 
     26 H26        -6.3761  -14.5851   34.1729 H         1 UNK         0.1150 
     27 H27        -6.1537  -16.0155   36.1968 H         1 UNK         0.1150 
     28 H28        -7.0157  -12.1906   34.4104 H         1 UNK         0.1150 
     29 H29       -10.1482   -5.1500   40.8474 H         1 UNK         0.1150 
     30 H30        -6.5668  -15.0758   38.4377 H         1 UNK         0.1150 
     31 H31        -7.4249  -11.2282   36.6525 H         1 UNK         0.1150 
     32 H32       -10.9370   -3.6842   39.0198 H         1 UNK         0.1150 
     33 H33        -7.2517  -12.2416   42.2787 H         1 UNK         0.1500 
     34 H34       -10.0915   -8.4874   38.1586 H         1 UNK         0.1150 
     35 H35        -6.4264  -13.9904   40.3626 H         1 UNK         0.1350 
     36 H36       -11.7074   -3.6520   34.6883 H         1 UNK         0.0300 
     37 H37       -12.2675   -5.2814   35.0192 H         1 UNK         0.0300 
     38 H38       -10.5225   -4.9379   34.8465 H         1 UNK         0.0300 
     39 H39       -10.8719   -8.6983   34.6759 H         1 UNK         0.0300 
     40 H40       -11.2969   -9.1462   36.3217 H         1 UNK         0.0300 
     41 H41        -9.6173   -8.7195   35.9078 H         1 UNK         0.0300 
     42 H42        -8.8754   -7.2619   41.3637 H         1 UNK         0.0300 
     43 H43       -10.4369   -8.0708   41.3685 H         1 UNK         0.0300 
@<TRIPOS>BOND
     1    1    2 ar   
     2    1    3 ar   
     3    1   26 1    
     4    2    5 ar   
     5    2   27 1    
     6    3    6 ar   
     7    3   28 1    
     8    4    7 ar   
     9    4   11 ar   
    10    4   29 1    
    11    5   12 ar   
    12    5   30 1    
    13    6   12 ar   
    14    6   31 1    
    15    7   13 ar   
    16    7   32 1    
    17    8   10 ar   
    18    8   15 ar   
    19    8   33 1    
    20    9   11 ar   
    21    9   14 ar   
    22    9   34 1    
    23   10   21 ar   
    24   10   35 1    
    25   11   19 1    
    26   12   21 1    
    27   13   14 ar   
    28   13   23 1    
    29   14   24 1    
    30   15   16 1    
    31   15   20 ar   
    32   16   22 2    
    33   16   25 1    
    34   17   23 1    
    35   17   36 1    
    36   17   37 1    
    37   17   38 1    
    38   18   24 1    
    39   18   39 1    
    40   18   40 1    
    41   18   41 1    
    42   19   25 1    
    43   19   42 1    
    44   19   43 1    
    45   20   21 ar   
@<TRIPOS>SUBSTRUCTURE
     1 UNK         1 GROUP             0       ****    0 ROOT    
@<TRIPOS>MOLECULE
ZINC78840303_139
47   48    1
SMALL
USER_CHARGES


@<TRIPOS>ATOM
      1 C1         -9.9685  -19.8572   37.9477 C.2       1 UNK        -0.0738 
      2 C2        -10.4739  -18.5671   38.2814 C.2       1 UNK        -0.0738 
      3 C3        -15.7796  -13.1732   38.4735 C.ar      1 UNK        -0.1150 
      4 C4        -13.7532  -11.9719   39.0616 C.ar      1 UNK        -0.1150 
      5 C5        -14.4176  -13.1907   38.8375 C.ar      1 UNK        -0.1150 
      6 C6        -16.4666  -11.9482   38.2876 C.ar      1 UNK         0.0850 
      7 C7        -14.4090  -10.7384   38.9001 C.ar      1 UNK         0.0850 
      8 C8        -15.7674  -10.7214   38.4686 C.ar      1 UNK         0.0850 
      9 C9        -10.4778  -20.3464   36.7728 C.2       1 UNK        -0.1787 
     10 C10       -11.3638  -18.0825   37.3582 C.2       1 UNK        -0.1787 
     11 C11       -13.6848  -14.4829   39.0413 C.2       1 UNK         0.6150 
     12 C12       -10.1777  -21.6512   36.1168 C.3       1 UNK        -0.0650 
     13 C13       -14.4312  -17.8111   37.6425 C.3       1 UNK        -0.1800 
     14 C14       -18.5466  -13.1001   37.8599 C.3       1 UNK         0.1100 
     15 C15       -14.2503   -8.4187   39.5551 C.3       1 UNK         0.1100 
     16 C16       -17.0575   -9.3526   37.0045 C.3       1 UNK         0.1100 
     17 C17       -12.0847  -16.7738   37.3933 C.3       1 UNK        -0.0050 
     18 C18       -13.4101  -16.7980   38.1862 C.3       1 UNK         0.1400 
     19 N19       -14.0142  -15.4695   38.1972 N.am      1 UNK        -0.5000 
     20 O20       -12.8006  -14.5882   39.8877 O.2       1 UNK        -0.5000 
     21 O21       -17.8057  -11.8923   37.9532 O.3       1 UNK        -0.2850 
     22 O22       -13.6271   -9.6290   39.1522 O.3       1 UNK        -0.2850 
     23 O23       -16.3921   -9.5130   38.2503 O.3       1 UNK        -0.2850 
     24 S24       -11.5937  -19.2174   36.0520 S.3       1 UNK         0.0328 
     25 H25        -9.2565  -20.3730   38.5755 H         1 UNK         0.1211 
     26 H26       -10.1705  -18.0449   39.1776 H         1 UNK         0.1211 
     27 H27       -16.2890  -14.1161   38.3549 H         1 UNK         0.1150 
     28 H28       -12.7175  -11.9789   39.3724 H         1 UNK         0.1150 
     29 H29       -11.0968  -22.1975   35.9039 H         1 UNK         0.0600 
     30 H30        -9.6507  -21.4969   35.1750 H         1 UNK         0.0600 
     31 H31        -9.5533  -22.2786   36.7532 H         1 UNK         0.0600 
     32 H32       -14.6605  -17.6274   36.5925 H         1 UNK         0.0600 
     33 H33       -15.3641  -17.7732   38.2057 H         1 UNK         0.0600 
     34 H34       -14.0541  -18.8311   37.7241 H         1 UNK         0.0600 
     35 H35       -19.5853  -12.8654   37.6275 H         1 UNK         0.0300 
     36 H36       -18.5373  -13.6490   38.8027 H         1 UNK         0.0300 
     37 H37       -18.1687  -13.7395   37.0612 H         1 UNK         0.0300 
     38 H38       -15.0640   -8.5913   40.2614 H         1 UNK         0.0300 
     39 H39       -14.6223   -7.8610   38.6954 H         1 UNK         0.0300 
     40 H40       -13.5143   -7.7889   40.0547 H         1 UNK         0.0300 
     41 H41       -16.9693   -8.3148   36.6844 H         1 UNK         0.0300 
     42 H42       -18.1205   -9.5746   37.0978 H         1 UNK         0.0300 
     43 H43       -16.6311   -9.9775   36.2180 H         1 UNK         0.0300 
     44 H44       -11.4184  -16.0239   37.8230 H         1 UNK         0.0600 
     45 H45       -12.2747  -16.4445   36.3710 H         1 UNK         0.0600 
     46 H46       -13.1845  -17.0831   39.2166 H         1 UNK         0.0600 
     47 H47       -14.7053  -15.2595   37.4961 H         1 UNK         0.3000 
@<TRIPOS>BOND
     1    1    2 1    
     2    1    9 2    
     3    1   25 1    
     4    2   10 2    
     5    2   26 1    
     6    3    5 ar   
     7    3    6 ar   
     8    3   27 1    
     9    4    5 ar   
    10    4    7 ar   
    11    4   28 1    
    12    5   11 1    
    13    6    8 ar   
    14    6   21 1    
    15    7    8 ar   
    16    7   22 1    
    17    8   23 1    
    18    9   12 1    
    19    9   24 1    
    20   10   17 1    
    21   10   24 1    
    22   11   19 am   BACKBONE|DICT|INTERRES
    23   11   20 2    
    24   12   29 1    
    25   12   30 1    
    26   12   31 1    
    27   13   18 1    
    28   13   32 1    
    29   13   33 1    
    30   13   34 1    
    31   14   21 1    
    32   14   35 1    
    33   14   36 1    
    34   14   37 1    
    35   15   22 1    
    36   15   38 1    
    37   15   39 1    
    38   15   40 1    
    39   16   23 1    
    40   16   41 1    
    41   16   42 1    
    42   16   43 1    
    43   17   18 1    
    44   17   44 1    
    45   17   45 1    
    46   18   19 1    
    47   18   46 1    
    48   19   47 1    
@<TRIPOS>SUBSTRUCTURE
     1 UNK         1 GROUP             0       ****    0 ROOT    
@<TRIPOS>MOLECULE
ZINC78902231_63
50   52    1
SMALL
USER_CHARGES


@<TRIPOS>ATOM
      1 C1        -11.4322   -9.3234   38.7701 C.ar      1 UNK        -0.1150 
      2 C2         -9.7012   -7.6815   39.2604 C.ar      1 UNK        -0.1150 
      3 C3         -6.8240  -12.0924   36.4339 C.ar      1 UNK        -0.3200 
      4 C4        -10.3017   -8.9291   39.5166 C.ar      1 UNK        -0.1150 
      5 C5        -11.2908   -7.2730   37.4571 C.ar      1 UNK        -0.1150 
      6 C6        -11.9299   -8.5064   37.7271 C.ar      1 UNK         0.0850 
      7 C7        -10.1859   -6.8421   38.2295 C.ar      1 UNK         0.0850 
      8 C8         -7.5118  -12.5915   37.5036 C.ar      1 UNK         0.0560 
      9 C9         -6.9370  -13.1005   35.4337 C.ar      1 UNK         0.2230 
     10 C10        -9.7791   -9.7817   40.6371 C.2       1 UNK         0.6150 
     11 C11        -7.6090  -12.3328   41.3814 C.3       1 UNK        -0.1200 
     12 C12        -7.2536  -12.9050   39.9982 C.3       1 UNK        -0.1200 
     13 C13        -9.1107  -12.0083   41.4699 C.3       1 UNK        -0.0500 
     14 C14        -9.2746  -11.6842   39.0599 C.3       1 UNK        -0.0500 
     15 C15        -7.7792  -12.0096   38.8559 C.3       1 UNK         0.0550 
     16 C16       -11.8166   -6.3859   36.3388 C.3       1 UNK        -0.0650 
     17 C17        -6.3759  -13.0990   34.0444 C.3       1 UNK        -0.0650 
     18 C18       -13.6747  -10.0807   37.2001 C.3       1 UNK         0.1100 
     19 C19        -8.5714   -5.1319   38.7405 C.3       1 UNK         0.1100 
     20 N20        -7.6363  -14.1433   35.8501 N.2       1 UNK        -0.5310 
     21 N21        -7.9838  -13.8238   37.1100 N.pl3     1 UNK        -0.1490 
     22 N22        -9.4764  -11.0820   40.3888 N.am      1 UNK        -0.1400 
     23 O23        -9.6432   -9.2694   41.7475 O.2       1 UNK        -0.5000 
     24 O24       -13.0206   -8.8451   36.9524 O.3       1 UNK        -0.2850 
     25 O25        -9.6377   -5.6105   37.9340 O.3       1 UNK        -0.2850 
     26 H26       -11.9013  -10.2634   39.0160 H         1 UNK         0.1150 
     27 H27        -8.8640   -7.3902   39.8771 H         1 UNK         0.1150 
     28 H28        -6.3152  -11.1421   36.3693 H         1 UNK         0.1500 
     29 H29        -7.3301  -13.0411   42.1626 H         1 UNK         0.0600 
     30 H30        -7.0286  -11.4272   41.5666 H         1 UNK         0.0600 
     31 H31        -6.1730  -13.0283   39.9106 H         1 UNK         0.0600 
     32 H32        -7.6827  -13.9039   39.9121 H         1 UNK         0.0600 
     33 H33        -9.7016  -12.9202   41.3764 H         1 UNK         0.0600 
     34 H34        -9.3454  -11.6077   42.4582 H         1 UNK         0.0600 
     35 H35        -9.5894  -11.0418   38.2393 H         1 UNK         0.0600 
     36 H36        -9.8805  -12.5874   38.9805 H         1 UNK         0.0600 
     37 H37        -7.2348  -11.0653   38.9134 H         1 UNK         0.0600 
     38 H38       -12.5875   -5.7200   36.7254 H         1 UNK         0.0600 
     39 H39       -11.0242   -5.7776   35.9034 H         1 UNK         0.0600 
     40 H40       -12.2465   -6.9765   35.5301 H         1 UNK         0.0600 
     41 H41        -5.3731  -13.5251   34.0309 H         1 UNK         0.0600 
     42 H42        -6.9964  -13.6852   33.3663 H         1 UNK         0.0600 
     43 H43        -6.3162  -12.0861   33.6470 H         1 UNK         0.0600 
     44 H44       -14.5030  -10.1945   36.5009 H         1 UNK         0.0300 
     45 H45       -14.0886  -10.1171   38.2086 H         1 UNK         0.0300 
     46 H46       -13.0008  -10.9256   37.0519 H         1 UNK         0.0300 
     47 H47        -8.2821   -4.1376   38.4003 H         1 UNK         0.0300 
     48 H48        -7.6939   -5.7752   38.6626 H         1 UNK         0.0300 
     49 H49        -8.8682   -5.0471   39.7868 H         1 UNK         0.0300 
     50 H50        -8.5308  -14.4526   37.6820 H         1 UNK         0.3410 
@<TRIPOS>BOND
     1    1    4 ar   
     2    1    6 ar   
     3    1   26 1    
     4    2    4 ar   
     5    2    7 ar   
     6    2   27 1    
     7    3    8 ar   
     8    3    9 ar   
     9    3   28 1    
    10    4   10 1    
    11    5    6 ar   
    12    5    7 ar   
    13    5   16 1    
    14    6   24 1    
    15    7   25 1    
    16    8   15 1    
    17    8   21 ar   
    18    9   17 1    
    19    9   20 ar   
    20   10   22 am   BACKBONE|DICT|INTERRES
    21   10   23 2    
    22   11   12 1    
    23   11   13 1    
    24   11   29 1    
    25   11   30 1    
    26   12   15 1    
    27   12   31 1    
    28   12   32 1    
    29   13   22 1    
    30   13   33 1    
    31   13   34 1    
    32   14   15 1    
    33   14   22 1    
    34   14   35 1    
    35   14   36 1    
    36   15   37 1    
    37   16   38 1    
    38   16   39 1    
    39   16   40 1    
    40   17   41 1    
    41   17   42 1    
    42   17   43 1    
    43   18   24 1    
    44   18   44 1    
    45   18   45 1    
    46   18   46 1    
    47   19   25 1    
    48   19   47 1    
    49   19   48 1    
    50   19   49 1    
    51   20   21 ar   
    52   21   50 1    
@<TRIPOS>SUBSTRUCTURE
     1 UNK         1 GROUP             0       ****    0 ROOT    
@<TRIPOS>MOLECULE
ZINC78902231_115
50   52    1
SMALL
USER_CHARGES


@<TRIPOS>ATOM
      1 C1        -21.0910  -19.5440   38.5800 C.ar      1 UNK        -0.1150 
      2 C2        -18.8211  -18.6647   38.5808 C.ar      1 UNK        -0.1150 
      3 C3        -16.8661  -24.3074   37.2146 C.ar      1 UNK        -0.3200 
      4 C4        -19.8055  -19.4971   39.1533 C.ar      1 UNK        -0.1150 
      5 C5        -20.3772  -18.0155   36.8193 C.ar      1 UNK        -0.1150 
      6 C6        -21.3903  -18.8082   37.4088 C.ar      1 UNK         0.0850 
      7 C7        -19.0910  -17.9280   37.4030 C.ar      1 UNK         0.0850 
      8 C8        -16.3713  -23.2726   38.0628 C.ar      1 UNK         0.2230 
      9 C9        -16.0329  -24.2932   36.1322 C.ar      1 UNK         0.0560 
     10 C10       -19.5309  -20.2793   40.4076 C.2       1 UNK         0.6150 
     11 C11       -18.2439  -23.3526   41.4892 C.3       1 UNK        -0.1200 
     12 C12       -17.7833  -23.8444   40.1009 C.3       1 UNK        -0.1200 
     13 C13       -18.0859  -21.8279   41.6698 C.3       1 UNK        -0.0500 
     14 C14       -17.6554  -21.4677   39.2488 C.3       1 UNK        -0.0500 
     15 C15       -16.8915  -22.8037   39.3981 C.3       1 UNK         0.0550 
     16 C16       -20.6858  -17.2289   35.5546 C.3       1 UNK        -0.0650 
     17 C17       -16.0130  -25.1245   34.8952 C.3       1 UNK        -0.0650 
     18 C18       -23.6753  -19.5628   37.4094 C.3       1 UNK         0.1100 
     19 C19       -16.8442  -17.0663   37.3191 C.3       1 UNK         0.1100 
     20 N20       -15.3178  -22.6646   37.5392 N.2       1 UNK        -0.5310 
     21 N21       -15.1188  -23.2925   36.3657 N.pl3     1 UNK        -0.1490 
     22 N22       -18.4543  -21.1069   40.4405 N.am      1 UNK        -0.1400 
     23 O23       -20.3080  -20.1564   41.3543 O.2       1 UNK        -0.5000 
     24 O24       -22.6298  -18.8180   36.8021 O.3       1 UNK        -0.2850 
     25 O25       -18.1611  -17.1137   36.7891 O.3       1 UNK        -0.2850 
     26 H26       -21.8348  -20.1591   39.0644 H         1 UNK         0.1150 
     27 H27       -17.8611  -18.6009   39.0682 H         1 UNK         0.1150 
     28 H28       -17.7100  -24.9604   37.3785 H         1 UNK         0.1500 
     29 H29       -19.2862  -23.6366   41.6417 H         1 UNK         0.0600 
     30 H30       -17.6777  -23.8606   42.2710 H         1 UNK         0.0600 
     31 H31       -17.2581  -24.7955   40.1972 H         1 UNK         0.0600 
     32 H32       -18.6597  -24.0385   39.4811 H         1 UNK         0.0600 
     33 H33       -18.6530  -21.5027   42.5442 H         1 UNK         0.0600 
     34 H34       -17.0485  -21.5843   41.9026 H         1 UNK         0.0600 
     35 H35       -16.9431  -20.6779   39.0107 H         1 UNK         0.0600 
     36 H36       -18.3225  -21.5602   38.3895 H         1 UNK         0.0600 
     37 H37       -16.0264  -22.6316   40.0408 H         1 UNK         0.0600 
     38 H38       -21.1109  -16.2602   35.8156 H         1 UNK         0.0600 
     39 H39       -19.7916  -17.0616   34.9547 H         1 UNK         0.0600 
     40 H40       -21.3995  -17.7581   34.9234 H         1 UNK         0.0600 
     41 H41       -16.3724  -24.5526   34.0395 H         1 UNK         0.0600 
     42 H42       -15.0040  -25.4733   34.6742 H         1 UNK         0.0600 
     43 H43       -16.6525  -26.0003   35.0061 H         1 UNK         0.0600 
     44 H44       -23.4393  -20.6271   37.4430 H         1 UNK         0.0300 
     45 H45       -24.5863  -19.4464   36.8225 H         1 UNK         0.0300 
     46 H46       -23.8857  -19.2054   38.4184 H         1 UNK         0.0300 
     47 H47       -16.2296  -16.4161   36.6967 H         1 UNK         0.0300 
     48 H48       -16.3790  -18.0532   37.3232 H         1 UNK         0.0300 
     49 H49       -16.8371  -16.6571   38.3301 H         1 UNK         0.0300 
     50 H50       -14.3657  -23.0276   35.7440 H         1 UNK         0.3410 
@<TRIPOS>BOND
     1    1    4 ar   
     2    1    6 ar   
     3    1   26 1    
     4    2    4 ar   
     5    2    7 ar   
     6    2   27 1    
     7    3    8 ar   
     8    3    9 ar   
     9    3   28 1    
    10    4   10 1    
    11    5    6 ar   
    12    5    7 ar   
    13    5   16 1    
    14    6   24 1    
    15    7   25 1    
    16    8   15 1    
    17    8   20 ar   
    18    9   17 1    
    19    9   21 ar   
    20   10   22 am   BACKBONE|DICT|INTERRES
    21   10   23 2    
    22   11   12 1    
    23   11   13 1    
    24   11   29 1    
    25   11   30 1    
    26   12   15 1    
    27   12   31 1    
    28   12   32 1    
    29   13   22 1    
    30   13   33 1    
    31   13   34 1    
    32   14   15 1    
    33   14   22 1    
    34   14   35 1    
    35   14   36 1    
    36   15   37 1    
    37   16   38 1    
    38   16   39 1    
    39   16   40 1    
    40   17   41 1    
    41   17   42 1    
    42   17   43 1    
    43   18   24 1    
    44   18   44 1    
    45   18   45 1    
    46   18   46 1    
    47   19   25 1    
    48   19   47 1    
    49   19   48 1    
    50   19   49 1    
    51   20   21 ar   
    52   21   50 1    
@<TRIPOS>SUBSTRUCTURE
     1 UNK         1 GROUP             0       ****    0 ROOT    
@<TRIPOS>MOLECULE
ZINC78982706_277
42   44    1
SMALL
USER_CHARGES


@<TRIPOS>ATOM
      1 C1         -9.6047  -22.7552   37.6456 C.ar      1 UNK         0.0055 
      2 C2        -10.6278  -23.5490   37.0921 C.ar      1 UNK        -0.3011 
      3 C3        -14.3894  -12.4914   38.3965 C.ar      1 UNK        -0.1150 
      4 C4         -9.8836  -21.4404   38.0685 C.ar      1 UNK        -0.4461 
      5 C5        -15.2660  -11.3939   38.3935 C.ar      1 UNK        -0.1150 
      6 C6        -11.9292  -23.0277   36.9605 C.ar      1 UNK        -0.1407 
      7 C7        -16.2854  -13.9806   38.0949 C.ar      1 UNK        -0.1150 
      8 C8        -14.8920  -13.7941   38.2307 C.ar      1 UNK        -0.1150 
      9 C9        -11.1777  -20.8913   37.9518 C.ar      1 UNK         0.6314 
     10 C10       -16.6567  -11.5627   38.2423 C.ar      1 UNK         0.0850 
     11 C11       -17.1862  -12.8818   38.0937 C.ar      1 UNK         0.0850 
     12 C12       -12.1964  -21.7132   37.3869 C.ar      1 UNK        -0.1027 
     13 C13       -12.8806  -19.4470   38.0816 C.2       1 UNK         0.2008 
     14 C14       -13.9492  -14.9614   38.2421 C.2       1 UNK         0.6150 
     15 C15       -18.7866  -10.3804   38.2189 C.3       1 UNK         0.1100 
     16 C16       -19.0774  -14.3800   37.8938 C.3       1 UNK         0.1100 
     17 C17       -13.5846  -18.1597   38.3593 C.3       1 UNK        -0.0050 
     18 C18       -13.4487  -17.1577   37.1996 C.3       1 UNK         0.0800 
     19 N19       -11.5757  -19.6130   38.3288 N.2       1 UNK        -0.5991 
     20 N20       -14.2568  -15.9571   37.4022 N.am      1 UNK        -0.5000 
     21 O21       -12.9378  -14.9580   38.9382 O.2       1 UNK        -0.5000 
     22 O22       -17.3689  -10.3778   38.2596 O.3       1 UNK        -0.2850 
     23 O23       -18.5476  -13.0632   37.9468 O.3       1 UNK        -0.2850 
     24 S24       -13.7124  -20.8191   37.3359 S.3       1 UNK        -0.0839 
     25 H25        -8.6051  -23.1544   37.7471 H         1 UNK         0.1296 
     26 H26       -10.4114  -24.5589   36.7689 H         1 UNK         0.1749 
     27 H27       -13.3271  -12.3328   38.5230 H         1 UNK         0.1150 
     28 H28        -9.1036  -20.8284   38.4939 H         1 UNK         0.2114 
     29 H29       -14.8664  -10.3979   38.5149 H         1 UNK         0.1150 
     30 H30       -12.7214  -23.6270   36.5369 H         1 UNK         0.2050 
     31 H31       -16.6497  -14.9907   38.0026 H         1 UNK         0.1150 
     32 H32       -19.1602  -10.7728   37.2724 H         1 UNK         0.0300 
     33 H33       -19.1447   -9.3549   38.3065 H         1 UNK         0.0300 
     34 H34       -19.2119  -10.9426   39.0510 H         1 UNK         0.0300 
     35 H35       -20.1635  -14.3248   37.8205 H         1 UNK         0.0300 
     36 H36       -18.8385  -14.9439   38.7965 H         1 UNK         0.0300 
     37 H37       -18.7176  -14.9215   37.0179 H         1 UNK         0.0300 
     38 H38       -13.1799  -17.7339   39.2788 H         1 UNK         0.0600 
     39 H39       -14.6351  -18.3779   38.5519 H         1 UNK         0.0600 
     40 H40       -12.3997  -16.8846   37.0661 H         1 UNK         0.0600 
     41 H41       -13.7673  -17.6263   36.2683 H         1 UNK         0.0600 
     42 H42       -15.0684  -15.8275   36.8196 H         1 UNK         0.3000 
@<TRIPOS>BOND
     1    1    2 ar   
     2    1    4 ar   
     3    1   25 1    
     4    2    6 ar   
     5    2   26 1    
     6    3    5 ar   
     7    3    8 ar   
     8    3   27 1    
     9    4    9 ar   
    10    4   28 1    
    11    5   10 ar   
    12    5   29 1    
    13    6   12 ar   
    14    6   30 1    
    15    7    8 ar   
    16    7   11 ar   
    17    7   31 1    
    18    8   14 1    
    19    9   12 ar   
    20    9   19 1    
    21   10   11 ar   
    22   10   22 1    
    23   11   23 1    
    24   12   24 1    
    25   13   17 1    
    26   13   19 2    
    27   13   24 1    
    28   14   20 am   BACKBONE|DICT|INTERRES
    29   14   21 2    
    30   15   22 1    
    31   15   32 1    
    32   15   33 1    
    33   15   34 1    
    34   16   23 1    
    35   16   35 1    
    36   16   36 1    
    37   16   37 1    
    38   17   18 1    
    39   17   38 1    
    40   17   39 1    
    41   18   20 1    
    42   18   40 1    
    43   18   41 1    
    44   20   42 1    
@<TRIPOS>SUBSTRUCTURE
     1 UNK         1 GROUP             0       ****    0 ROOT    
@<TRIPOS>MOLECULE
ZINC78998153_17
42   44    1
SMALL
USER_CHARGES


@<TRIPOS>ATOM
      1 C1         -4.5025  -10.0129   38.1700 C.ar      1 UNK        -0.1150 
      2 C2         -4.3391   -9.3606   36.9293 C.ar      1 UNK        -0.1150 
      3 C3         -7.9293   -5.9354   38.6578 C.ar      1 UNK        -0.1150 
      4 C4         -6.6878   -4.0328   39.5435 C.ar      1 UNK        -0.1150 
      5 C5         -5.1837   -7.2655   37.8857 C.ar      1 UNK        -0.1150 
      6 C6         -7.0131   -5.4033   39.5910 C.ar      1 UNK        -0.1150 
      7 C7         -5.0214   -9.2727   39.2465 C.ar      1 UNK        -0.1150 
      8 C8         -5.3836   -7.9347   39.1149 C.ar      1 UNK        -0.0383 
      9 C9         -8.4686   -5.1227   37.6324 C.ar      1 UNK         0.0850 
     10 C10        -7.2241   -3.1988   38.5339 C.ar      1 UNK         0.0850 
     11 C11        -8.0996   -3.7579   37.5764 C.ar      1 UNK         0.0850 
     12 C12        -4.6717   -7.9940   36.7908 C.ar      1 UNK         0.2000 
     13 C13        -6.4392   -6.2644   40.6794 C.2       1 UNK         0.6150 
     14 C14        -5.2330   -9.7588   40.6514 C.3       1 UNK        -0.0050 
     15 C15        -5.6532   -8.4745   41.3999 C.3       1 UNK        -0.0500 
     16 C16        -9.6868   -6.9637   36.6737 C.3       1 UNK         0.1100 
     17 C17        -6.1088   -1.2528   39.4001 C.3       1 UNK         0.1100 
     18 C18        -7.9633   -3.1013   35.3447 C.3       1 UNK         0.1100 
     19 N19        -5.8632   -7.4521   40.3643 N.am      1 UNK        -0.0317 
     20 O20        -6.4928   -5.8571   41.8402 O.2       1 UNK        -0.5000 
     21 O21        -9.3453   -5.5860   36.6729 O.3       1 UNK        -0.2850 
     22 O22        -6.9317   -1.8561   38.4137 O.3       1 UNK        -0.2850 
     23 O23        -8.6107   -2.9464   36.5965 O.3       1 UNK        -0.2850 
     24 Br24       -4.4237   -7.1237   35.1183 Br        1 UNK        -0.2000 
     25 H25        -4.2289  -11.0514   38.2884 H         1 UNK         0.1150 
     26 H26        -3.9442   -9.9018   36.0819 H         1 UNK         0.1150 
     27 H27        -8.1940   -6.9786   38.7388 H         1 UNK         0.1150 
     28 H28        -6.0156   -3.6447   40.2941 H         1 UNK         0.1150 
     29 H29        -5.3986   -6.2167   37.7516 H         1 UNK         0.1150 
     30 H30        -6.0232  -10.5102   40.6674 H         1 UNK         0.0600 
     31 H31        -4.3219  -10.1951   41.0624 H         1 UNK         0.0600 
     32 H32        -6.5508   -8.6355   41.9995 H         1 UNK         0.0600 
     33 H33        -4.8587   -8.1401   42.0689 H         1 UNK         0.0600 
     34 H34       -10.3597   -7.1660   35.8405 H         1 UNK         0.0300 
     35 H35       -10.2053   -7.2450   37.5912 H         1 UNK         0.0300 
     36 H36        -8.8052   -7.5937   36.5456 H         1 UNK         0.0300 
     37 H37        -6.0052   -0.1906   39.1793 H         1 UNK         0.0300 
     38 H38        -5.1084   -1.6873   39.4047 H         1 UNK         0.0300 
     39 H39        -6.5481   -1.3413   40.3947 H         1 UNK         0.0300 
     40 H40        -8.3699   -2.3816   34.6347 H         1 UNK         0.0300 
     41 H41        -8.1126   -4.0994   34.9316 H         1 UNK         0.0300 
     42 H42        -6.8912   -2.9172   35.4318 H         1 UNK         0.0300 
@<TRIPOS>BOND
     1    1    2 ar   
     2    1    7 ar   
     3    1   25 1    
     4    2   12 ar   
     5    2   26 1    
     6    3    6 ar   
     7    3    9 ar   
     8    3   27 1    
     9    4    6 ar   
    10    4   10 ar   
    11    4   28 1    
    12    5    8 ar   
    13    5   12 ar   
    14    5   29 1    
    15    6   13 1    
    16    7    8 ar   
    17    7   14 1    
    18    8   19 1    
    19    9   11 ar   
    20    9   21 1    
    21   10   11 ar   
    22   10   22 1    
    23   11   23 1    
    24   12   24 1    
    25   13   19 am   BACKBONE|DICT|INTERRES
    26   13   20 2    
    27   14   15 1    
    28   14   30 1    
    29   14   31 1    
    30   15   19 1    
    31   15   32 1    
    32   15   33 1    
    33   16   21 1    
    34   16   34 1    
    35   16   35 1    
    36   16   36 1    
    37   17   22 1    
    38   17   37 1    
    39   17   38 1    
    40   17   39 1    
    41   18   23 1    
    42   18   40 1    
    43   18   41 1    
    44   18   42 1    
@<TRIPOS>SUBSTRUCTURE
     1 UNK         1 GROUP             0       ****    0 ROOT    
@<TRIPOS>MOLECULE
ZINC79112452_291
48   51    1
SMALL
USER_CHARGES


@<TRIPOS>ATOM
      1 C1        -12.1431  -20.4907   35.8454 C.ar      1 UNK        -0.1150 
      2 C2        -16.3649  -15.3919   37.0941 C.ar      1 UNK        -0.1150 
      3 C3        -18.6327  -20.4624   41.8965 C.2       1 UNK        -0.1540 
      4 C4        -12.8775  -19.8433   36.8566 C.ar      1 UNK        -0.1150 
      5 C5        -16.2668  -16.3743   38.0968 C.ar      1 UNK        -0.1150 
      6 C6        -11.8087  -21.8539   35.9722 C.ar      1 UNK        -0.1150 
      7 C7        -15.8395  -14.1041   37.3121 C.ar      1 UNK        -0.1150 
      8 C8        -17.7725  -19.6357   41.1223 C.2       1 UNK        -0.1540 
      9 C9        -12.9372  -21.9388   38.1305 C.ar      1 UNK        -0.1150 
     10 C10       -15.1241  -14.7790   39.5378 C.ar      1 UNK        -0.1150 
     11 C11       -17.8159  -21.2130   42.6926 C.2       1 UNK        -0.0190 
     12 C12       -13.2704  -20.5728   37.9992 C.ar      1 UNK         0.0631 
     13 C13       -15.6266  -16.0803   39.3222 C.ar      1 UNK        -0.1150 
     14 C14       -12.2058  -22.5907   37.1173 C.ar      1 UNK         0.0850 
     15 C15       -15.2158  -13.7848   38.5438 C.ar      1 UNK         0.0850 
     16 C16       -16.4928  -19.9379   41.5043 C.2       1 UNK         0.0080 
     17 C17       -14.0436  -19.8919   39.0605 C.2       1 UNK         0.1657 
     18 C18       -15.5384  -17.1028   40.4255 C.2       1 UNK         0.6150 
     19 C19       -14.3273  -20.5455   40.3685 C.3       1 UNK        -0.0721 
     20 C20       -15.1291  -19.4598   41.0912 C.3       1 UNK         0.2550 
     21 C21       -11.2099  -24.6177   36.3038 C.3       1 UNK         0.1100 
     22 C22       -14.7728  -11.5248   37.8693 C.3       1 UNK         0.1100 
     23 N23       -14.5111  -18.7036   38.9632 N.2       1 UNK        -0.2833 
     24 N24       -15.1538  -18.3643   40.1144 N.am      1 UNK        -0.1934 
     25 O25       -15.7666  -16.7579   41.5846 O.2       1 UNK        -0.5000 
     26 O26       -16.5099  -20.9085   42.4621 O.3       1 UNK        -0.1900 
     27 O27       -11.9243  -23.9243   37.3167 O.3       1 UNK        -0.2850 
     28 O28       -14.6843  -12.5505   38.8468 O.3       1 UNK        -0.2850 
     29 H29       -11.8351  -19.9393   34.9690 H         1 UNK         0.1150 
     30 H30       -16.8472  -15.6256   36.1563 H         1 UNK         0.1150 
     31 H31       -19.7123  -20.5005   41.8755 H         1 UNK         0.1260 
     32 H32       -13.1284  -18.7969   36.7477 H         1 UNK         0.1150 
     33 H33       -16.6807  -17.3575   37.9239 H         1 UNK         0.1150 
     34 H34       -11.2451  -22.3119   35.1739 H         1 UNK         0.1150 
     35 H35       -15.9337  -13.3770   36.5208 H         1 UNK         0.1150 
     36 H36       -18.0536  -18.9035   40.3793 H         1 UNK         0.1260 
     37 H37       -13.2335  -22.5116   38.9960 H         1 UNK         0.1150 
     38 H38       -14.6588  -14.5384   40.4832 H         1 UNK         0.1150 
     39 H39       -17.9882  -21.9716   43.4427 H         1 UNK         0.1420 
     40 H40       -14.9074  -21.4592   40.2329 H         1 UNK         0.0600 
     41 H41       -13.4073  -20.7868   40.9008 H         1 UNK         0.0600 
     42 H42       -14.5816  -19.1302   41.9765 H         1 UNK         0.0600 
     43 H43       -11.0830  -25.6585   36.6012 H         1 UNK         0.0300 
     44 H44       -10.2157  -24.1937   36.1558 H         1 UNK         0.0300 
     45 H45       -11.7517  -24.6100   35.3570 H         1 UNK         0.0300 
     46 H46       -14.2378  -11.7958   36.9581 H         1 UNK         0.0300 
     47 H47       -14.3171  -10.6154   38.2608 H         1 UNK         0.0300 
     48 H48       -15.8108  -11.2945   37.6252 H         1 UNK         0.0300 
@<TRIPOS>BOND
     1    1    4 ar   
     2    1    6 ar   
     3    1   29 1    
     4    2    5 ar   
     5    2    7 ar   
     6    2   30 1    
     7    3    8 1    
     8    3   11 2    
     9    3   31 1    
    10    4   12 ar   
    11    4   32 1    
    12    5   13 ar   
    13    5   33 1    
    14    6   14 ar   
    15    6   34 1    
    16    7   15 ar   
    17    7   35 1    
    18    8   16 2    
    19    8   36 1    
    20    9   12 ar   
    21    9   14 ar   
    22    9   37 1    
    23   10   13 ar   
    24   10   15 ar   
    25   10   38 1    
    26   11   26 1    
    27   11   39 1    
    28   12   17 1    
    29   13   18 1    
    30   14   27 1    
    31   15   28 1    
    32   16   20 1    
    33   16   26 1    
    34   17   19 1    
    35   17   23 2    
    36   18   24 am   BACKBONE|DICT|INTERRES
    37   18   25 2    
    38   19   20 1    
    39   19   40 1    
    40   19   41 1    
    41   20   24 1    
    42   20   42 1    
    43   21   27 1    
    44   21   43 1    
    45   21   44 1    
    46   21   45 1    
    47   22   28 1    
    48   22   46 1    
    49   22   47 1    
    50   22   48 1    
    51   23   24 1    
@<TRIPOS>SUBSTRUCTURE
     1 UNK         1 GROUP             0       ****    0 ROOT    
@<TRIPOS>MOLECULE
ZINC79112531_46
52   55    1
SMALL
USER_CHARGES


@<TRIPOS>ATOM
      1 C1         -9.1465  -10.2261   43.2965 C.ar      1 UNK        -0.1150 
      2 C2         -9.2769   -9.9301   41.9263 C.ar      1 UNK        -0.1150 
      3 C3         -7.9350   -9.9572   43.9614 C.ar      1 UNK        -0.1150 
      4 C4         -4.1577  -10.2007   35.7119 C.2       1 UNK        -0.1540 
      5 C5         -8.1971   -9.3634   41.2221 C.ar      1 UNK        -0.1150 
      6 C6         -6.8548   -9.3900   43.2576 C.ar      1 UNK        -0.1150 
      7 C7         -4.8015   -9.2035   36.4999 C.2       1 UNK        -0.1540 
      8 C8         -7.9693   -5.7454   38.3910 C.ar      1 UNK        -0.1150 
      9 C9         -6.7225   -3.9352   39.4384 C.ar      1 UNK        -0.1150 
     10 C10        -3.7190  -11.1634   36.5841 C.2       1 UNK        -0.0190 
     11 C11        -7.0945   -5.2943   39.4032 C.ar      1 UNK        -0.1150 
     12 C12        -6.9801   -9.0849   41.8853 C.ar      1 UNK        -0.1150 
     13 C13        -8.4315   -4.8652   37.3840 C.ar      1 UNK         0.0850 
     14 C14        -7.1780   -3.0331   38.4477 C.ar      1 UNK         0.0850 
     15 C15        -8.0179   -3.5119   37.4176 C.ar      1 UNK         0.0850 
     16 C16        -4.6913   -9.6597   37.7824 C.2       1 UNK         0.1401 
     17 C17        -5.2115   -8.9493   38.9273 C.2       1 UNK         0.2117 
     18 C18        -6.6144   -6.2213   40.4888 C.2       1 UNK         0.6150 
     19 C19        -5.0617   -9.5192   40.2901 C.3       1 UNK        -0.0721 
     20 C20        -5.7983   -8.4745   41.1336 C.3       1 UNK         0.2550 
     21 C21        -9.7098   -6.6047   36.3203 C.3       1 UNK         0.1100 
     22 C22        -6.0681   -1.1701   39.4852 C.3       1 UNK         0.1100 
     23 C23        -7.8173   -2.7843   35.2070 C.3       1 UNK         0.1100 
     24 N24        -5.8225   -7.8249   38.8824 N.2       1 UNK        -0.2833 
     25 N25        -6.1811   -7.4582   40.1445 N.am      1 UNK        -0.1934 
     26 O26        -6.5625   -5.8112   41.6479 O.2       1 UNK        -0.5000 
     27 O27        -4.0398  -10.8472   37.8725 O.3       1 UNK        -0.1900 
     28 O28        -9.2803   -5.2525   36.3665 O.3       1 UNK        -0.2850 
     29 O29        -6.8395   -1.6956   38.4158 O.3       1 UNK        -0.2850 
     30 O30        -8.4540   -2.6270   36.4639 O.3       1 UNK        -0.2850 
     31 H31        -9.9763  -10.6572   43.8377 H         1 UNK         0.1150 
     32 H32       -10.2068  -10.1357   41.4160 H         1 UNK         0.1150 
     33 H33        -7.8357  -10.1821   45.0135 H         1 UNK         0.1150 
     34 H34        -4.0290  -10.2131   34.6391 H         1 UNK         0.1260 
     35 H35        -8.3081   -9.1428   40.1702 H         1 UNK         0.1150 
     36 H36        -5.9325   -9.1818   43.7804 H         1 UNK         0.1150 
     37 H37        -5.2744   -8.2866   36.1764 H         1 UNK         0.1260 
     38 H38        -8.2731   -6.7802   38.4082 H         1 UNK         0.1150 
     39 H39        -6.0794   -3.6085   40.2417 H         1 UNK         0.1150 
     40 H40        -3.1851  -12.0953   36.4610 H         1 UNK         0.1420 
     41 H41        -5.5120  -10.5108   40.3522 H         1 UNK         0.0600 
     42 H42        -4.0100   -9.5947   40.5661 H         1 UNK         0.0600 
     43 H43        -5.1060   -8.0266   41.8499 H         1 UNK         0.0600 
     44 H44       -10.3691   -6.7431   35.4638 H         1 UNK         0.0300 
     45 H45       -10.2723   -6.8757   37.2149 H         1 UNK         0.0300 
     46 H46        -8.8668   -7.2866   36.2003 H         1 UNK         0.0300 
     47 H47        -5.9259   -0.1002   39.3338 H         1 UNK         0.0300 
     48 H48        -5.0805   -1.6310   39.5273 H         1 UNK         0.0300 
     49 H49        -6.5723   -1.3028   40.4436 H         1 UNK         0.0300 
     50 H50        -8.1194   -1.9730   34.5452 H         1 UNK         0.0300 
     51 H51        -8.0895   -3.7239   34.7263 H         1 UNK         0.0300 
     52 H52        -6.7317   -2.7455   35.3086 H         1 UNK         0.0300 
@<TRIPOS>BOND
     1    1    2 ar   
     2    1    3 ar   
     3    1   31 1    
     4    2    5 ar   
     5    2   32 1    
     6    3    6 ar   
     7    3   33 1    
     8    4    7 1    
     9    4   10 2    
    10    4   34 1    
    11    5   12 ar   
    12    5   35 1    
    13    6   12 ar   
    14    6   36 1    
    15    7   16 2    
    16    7   37 1    
    17    8   11 ar   
    18    8   13 ar   
    19    8   38 1    
    20    9   11 ar   
    21    9   14 ar   
    22    9   39 1    
    23   10   27 1    
    24   10   40 1    
    25   11   18 1    
    26   12   20 1    
    27   13   15 ar   
    28   13   28 1    
    29   14   15 ar   
    30   14   29 1    
    31   15   30 1    
    32   16   17 1    
    33   16   27 1    
    34   17   19 1    
    35   17   24 2    
    36   18   25 am   BACKBONE|DICT|INTERRES
    37   18   26 2    
    38   19   20 1    
    39   19   41 1    
    40   19   42 1    
    41   20   25 1    
    42   20   43 1    
    43   21   28 1    
    44   21   44 1    
    45   21   45 1    
    46   21   46 1    
    47   22   29 1    
    48   22   47 1    
    49   22   48 1    
    50   22   49 1    
    51   23   30 1    
    52   23   50 1    
    53   23   51 1    
    54   23   52 1    
    55   24   25 1    
@<TRIPOS>SUBSTRUCTURE
     1 UNK         1 GROUP             0       ****    0 ROOT    
@<TRIPOS>MOLECULE
ZINC79293814_273
42   44    1
SMALL
USER_CHARGES


@<TRIPOS>ATOM
      1 C1        -10.5104  -22.4648   36.5983 C.ar      1 UNK         0.0055 
      2 C2        -10.4499  -22.7725   37.9711 C.ar      1 UNK        -0.3011 
      3 C3        -11.1823  -21.3044   36.1649 C.ar      1 UNK        -0.4461 
      4 C4        -11.0613  -21.9201   38.9104 C.ar      1 UNK        -0.1407 
      5 C5        -14.8303  -12.0512   39.5672 C.ar      1 UNK        -0.1150 
      6 C6        -15.4091  -12.7879   37.3222 C.ar      1 UNK        -0.1150 
      7 C7        -14.8011  -13.0466   38.5689 C.ar      1 UNK        -0.1150 
      8 C8        -11.8054  -20.4325   37.0822 C.ar      1 UNK         0.6314 
      9 C9        -15.4191  -10.7933   39.3308 C.ar      1 UNK         0.0850 
     10 C10       -16.0488  -10.5489   38.0788 C.ar      1 UNK         0.0850 
     11 C11       -11.7302  -20.7645   38.4663 C.ar      1 UNK        -0.1027 
     12 C12       -16.0276  -11.5486   37.0793 C.ar      1 UNK         0.1800 
     13 C13       -12.9608  -18.7033   37.9031 C.2       1 UNK         0.2008 
     14 C14       -14.1620  -14.3708   38.8574 C.2       1 UNK         0.6150 
     15 C15       -15.2079   -8.5132   40.0422 C.3       1 UNK         0.1100 
     16 C16       -18.0615   -9.3924   38.2286 C.3       1 UNK         0.1100 
     17 C17       -13.7168  -17.4174   37.8865 C.3       1 UNK        -0.0050 
     18 C18       -12.7827  -16.1962   37.9065 C.3       1 UNK         0.0800 
     19 N19       -12.4928  -19.2611   36.7793 N.2       1 UNK        -0.5991 
     20 N20       -13.5187  -14.9372   37.8299 N.am      1 UNK        -0.5000 
     21 O21       -14.1901  -14.8606   39.9831 O.2       1 UNK        -0.5000 
     22 O22       -15.3549   -9.8887   40.3683 O.3       1 UNK        -0.2850 
     23 O23       -16.7021   -9.3710   37.8210 O.3       1 UNK        -0.2850 
     24 S24       -12.5672  -19.5380   39.4122 S.3       1 UNK        -0.0839 
     25 Cl25      -16.7738  -11.2752   35.5456 Cl        1 UNK        -0.1800 
     26 H26       -10.0411  -23.1185   35.8762 H         1 UNK         0.1296 
     27 H27        -9.9332  -23.6636   38.3028 H         1 UNK         0.1749 
     28 H28       -11.2309  -21.0651   35.1142 H         1 UNK         0.2114 
     29 H29       -11.0215  -22.1442   39.9663 H         1 UNK         0.2050 
     30 H30       -14.3758  -12.2477   40.5288 H         1 UNK         0.1150 
     31 H31       -15.4277  -13.5410   36.5483 H         1 UNK         0.1150 
     32 H32       -16.1757   -8.0342   39.8971 H         1 UNK         0.0300 
     33 H33       -14.5934   -8.3612   39.1532 H         1 UNK         0.0300 
     34 H34       -14.7167   -8.0019   40.8698 H         1 UNK         0.0300 
     35 H35       -18.1531   -9.5892   39.2979 H         1 UNK         0.0300 
     36 H36       -18.6272  -10.1514   37.6865 H         1 UNK         0.0300 
     37 H37       -18.5192   -8.4245   38.0252 H         1 UNK         0.0300 
     38 H38       -14.3848  -17.4000   38.7487 H         1 UNK         0.0600 
     39 H39       -14.3504  -17.3986   36.9990 H         1 UNK         0.0600 
     40 H40       -12.1644  -16.2115   38.8064 H         1 UNK         0.0600 
     41 H41       -12.0975  -16.2459   37.0595 H         1 UNK         0.0600 
     42 H42       -13.5005  -14.4339   36.9571 H         1 UNK         0.3000 
@<TRIPOS>BOND
     1    1    2 ar   
     2    1    3 ar   
     3    1   26 1    
     4    2    4 ar   
     5    2   27 1    
     6    3    8 ar   
     7    3   28 1    
     8    4   11 ar   
     9    4   29 1    
    10    5    7 ar   
    11    5    9 ar   
    12    5   30 1    
    13    6    7 ar   
    14    6   12 ar   
    15    6   31 1    
    16    7   14 1    
    17    8   11 ar   
    18    8   19 1    
    19    9   10 ar   
    20    9   22 1    
    21   10   12 ar   
    22   10   23 1    
    23   11   24 1    
    24   12   25 1    
    25   13   17 1    
    26   13   19 2    
    27   13   24 1    
    28   14   20 am   BACKBONE|DICT|INTERRES
    29   14   21 2    
    30   15   22 1    
    31   15   32 1    
    32   15   33 1    
    33   15   34 1    
    34   16   23 1    
    35   16   35 1    
    36   16   36 1    
    37   16   37 1    
    38   17   18 1    
    39   17   38 1    
    40   17   39 1    
    41   18   20 1    
    42   18   40 1    
    43   18   41 1    
    44   20   42 1    
@<TRIPOS>SUBSTRUCTURE
     1 UNK         1 GROUP             0       ****    0 ROOT    
@<TRIPOS>MOLECULE
ZINC79293945_201
44   47    1
SMALL
USER_CHARGES


@<TRIPOS>ATOM
      1 C1         -9.2282  -21.9633   37.6361 C.ar      1 UNK         0.0055 
      2 C2        -10.1970  -22.8717   37.1682 C.ar      1 UNK        -0.3011 
      3 C3         -9.6113  -20.6667   38.0325 C.ar      1 UNK        -0.4461 
      4 C4        -11.5485  -22.4833   37.0970 C.ar      1 UNK        -0.1407 
      5 C5        -14.9730  -12.1884   38.3226 C.ar      1 UNK        -0.1150 
      6 C6        -16.7117  -13.8801   38.2127 C.ar      1 UNK        -0.1150 
      7 C7        -15.3414  -13.5429   38.2266 C.ar      1 UNK        -0.1150 
      8 C8        -10.9573  -20.2489   37.9734 C.ar      1 UNK         0.6314 
      9 C9        -15.9530  -11.1826   38.3762 C.ar      1 UNK         0.0850 
     10 C10       -17.3355  -11.5196   38.3159 C.ar      1 UNK         0.0850 
     11 C11       -17.7167  -12.8934   38.2549 C.ar      1 UNK         0.0850 
     12 C12       -11.9196  -21.1858   37.4961 C.ar      1 UNK        -0.1027 
     13 C13       -12.7845  -18.9720   38.1568 C.2       1 UNK         0.2008 
     14 C14       -14.2811  -14.6023   38.1907 C.2       1 UNK         0.6150 
     15 C15       -16.5323   -8.9524   38.8660 C.3       1 UNK         0.1400 
     16 C16       -17.7920   -9.2111   38.0336 C.3       1 UNK         0.1400 
     17 C17       -20.1168  -12.5254   38.3580 C.3       1 UNK         0.1100 
     18 C18       -13.5966  -17.7502   38.4350 C.3       1 UNK        -0.0050 
     19 C19       -13.6619  -16.8030   37.2243 C.3       1 UNK         0.0800 
     20 N20       -11.4577  -19.0015   38.3314 N.2       1 UNK        -0.5991 
     21 N21       -14.5673  -15.6783   37.4482 N.am      1 UNK        -0.5000 
     22 O22       -13.2054  -14.4480   38.7622 O.2       1 UNK        -0.5000 
     23 O23       -15.5265   -9.8776   38.4800 O.3       1 UNK        -0.2850 
     24 O24       -18.2806  -10.5141   38.3235 O.3       1 UNK        -0.2850 
     25 O25       -19.0043  -13.3943   38.2176 O.3       1 UNK        -0.2850 
     26 S26       -13.5168  -20.4456   37.5068 S.3       1 UNK        -0.0839 
     27 H27        -8.1900  -22.2599   37.6913 H         1 UNK         0.1296 
     28 H28        -9.9009  -23.8671   36.8646 H         1 UNK         0.1749 
     29 H29        -8.8730  -19.9670   38.3920 H         1 UNK         0.2114 
     30 H30       -12.3009  -23.1710   36.7403 H         1 UNK         0.2050 
     31 H31       -13.9272  -11.9164   38.3636 H         1 UNK         0.1150 
     32 H32       -17.0162  -14.9156   38.1788 H         1 UNK         0.1150 
     33 H33       -16.1652   -7.9397   38.6991 H         1 UNK         0.0300 
     34 H34       -16.7409   -9.0518   39.9323 H         1 UNK         0.0300 
     35 H35       -18.5655   -8.4819   38.2753 H         1 UNK         0.0300 
     36 H36       -17.5807   -9.1200   36.9672 H         1 UNK         0.0300 
     37 H37       -20.0726  -11.9615   39.2907 H         1 UNK         0.0300 
     38 H38       -21.0302  -13.1193   38.3815 H         1 UNK         0.0300 
     39 H39       -20.1984  -11.8415   37.5124 H         1 UNK         0.0300 
     40 H40       -13.1668  -17.2359   39.2963 H         1 UNK         0.0600 
     41 H41       -14.5991  -18.0638   38.7267 H         1 UNK         0.0600 
     42 H42       -12.6612  -16.4370   36.9836 H         1 UNK         0.0600 
     43 H43       -14.0112  -17.3490   36.3474 H         1 UNK         0.0600 
     44 H44       -15.4545  -15.6801   36.9705 H         1 UNK         0.3000 
@<TRIPOS>BOND
     1    1    2 ar   
     2    1    3 ar   
     3    1   27 1    
     4    2    4 ar   
     5    2   28 1    
     6    3    8 ar   
     7    3   29 1    
     8    4   12 ar   
     9    4   30 1    
    10    5    7 ar   
    11    5    9 ar   
    12    5   31 1    
    13    6    7 ar   
    14    6   11 ar   
    15    6   32 1    
    16    7   14 1    
    17    8   12 ar   
    18    8   20 1    
    19    9   10 ar   
    20    9   23 1    
    21   10   11 ar   
    22   10   24 1    
    23   11   25 1    
    24   12   26 1    
    25   13   18 1    
    26   13   20 2    
    27   13   26 1    
    28   14   21 am   BACKBONE|DICT|INTERRES
    29   14   22 2    
    30   15   16 1    
    31   15   23 1    
    32   15   33 1    
    33   15   34 1    
    34   16   24 1    
    35   16   35 1    
    36   16   36 1    
    37   17   25 1    
    38   17   37 1    
    39   17   38 1    
    40   17   39 1    
    41   18   19 1    
    42   18   40 1    
    43   18   41 1    
    44   19   21 1    
    45   19   42 1    
    46   19   43 1    
    47   21   44 1    
@<TRIPOS>SUBSTRUCTURE
     1 UNK         1 GROUP             0       ****    0 ROOT    
@<TRIPOS>MOLECULE
ZINC79352240_53
51   53    1
SMALL
USER_CHARGES


@<TRIPOS>ATOM
      1 C1        -12.4712  -10.7528   39.0360 C.ar      1 UNK        -0.1150 
      2 C2        -10.9622   -9.0759   39.9449 C.ar      1 UNK        -0.1150 
      3 C3        -11.4267  -10.4040   39.9166 C.ar      1 UNK        -0.1150 
      4 C4        -13.0041   -9.7992   38.1368 C.ar      1 UNK         0.0850 
      5 C5        -11.4922   -8.0985   39.0822 C.ar      1 UNK         0.0850 
      6 C6        -12.4980   -8.4745   38.1472 C.ar      1 UNK         0.1996 
      7 C7        -10.8637  -11.4111   40.8788 C.2       1 UNK         0.6150 
      8 C8         -8.6450  -14.3539   36.8201 C.3       1 UNK        -0.1200 
      9 C9         -8.0630  -13.0317   37.3447 C.3       1 UNK        -0.1200 
     10 C10       -10.7935  -15.0052   40.8083 C.3       1 UNK        -0.1200 
     11 C11       -10.1743  -14.4013   36.9882 C.3       1 UNK        -0.1200 
     12 C12       -10.3624  -15.3342   39.3744 C.3       1 UNK        -0.1200 
     13 C13        -8.4570  -12.7939   38.8105 C.3       1 UNK        -0.1200 
     14 C14       -10.1182  -13.7170   41.3070 C.3       1 UNK        -0.0500 
     15 C15       -10.6233  -14.1382   38.4407 C.3       1 UNK        -0.0600 
     16 C16        -9.9917  -12.8332   38.9872 C.3       1 UNK         0.0100 
     17 C17       -14.5615  -11.3949   37.2247 C.3       1 UNK         0.1100 
     18 C18       -11.7379   -5.7103   38.8599 C.3       1 UNK         0.1100 
     19 C19       -12.6966   -7.7643   35.9357 C.3       1 UNK         0.6167 
     20 N20       -10.3923  -12.5910   40.3938 N.am      1 UNK        -0.1400 
     21 O21       -10.8808  -11.1377   42.0783 O.2       1 UNK        -0.5000 
     22 O22       -13.9999  -10.0903   37.2268 O.3       1 UNK        -0.2850 
     23 O23       -10.9487   -6.8375   39.2131 O.3       1 UNK        -0.2850 
     24 O24       -12.9976   -7.5677   37.2461 O.3       1 UNK        -0.3811 
     25 F25       -13.8108   -7.6245   35.1775 F         1 UNK        -0.2326 
     26 F26       -11.7967   -6.8392   35.5226 F         1 UNK        -0.2326 
     27 H27       -12.8393  -11.7671   39.0621 H         1 UNK         0.1150 
     28 H28       -10.1922   -8.7951   40.6500 H         1 UNK         0.1150 
     29 H29        -8.3863  -14.4779   35.7677 H         1 UNK         0.0600 
     30 H30        -8.1848  -15.1923   37.3439 H         1 UNK         0.0600 
     31 H31        -6.9764  -13.0406   37.2495 H         1 UNK         0.0600 
     32 H32        -8.4177  -12.2040   36.7288 H         1 UNK         0.0600 
     33 H33       -11.8776  -14.8905   40.8510 H         1 UNK         0.0600 
     34 H34       -10.5466  -15.8355   41.4711 H         1 UNK         0.0600 
     35 H35       -10.6208  -13.6482   36.3372 H         1 UNK         0.0600 
     36 H36       -10.5594  -15.3614   36.6419 H         1 UNK         0.0600 
     37 H37        -9.3045  -15.5975   39.3709 H         1 UNK         0.0600 
     38 H38       -10.8986  -16.2150   39.0192 H         1 UNK         0.0600 
     39 H39        -7.9740  -13.5494   39.4298 H         1 UNK         0.0600 
     40 H40        -8.0663  -11.8311   39.1427 H         1 UNK         0.0600 
     41 H41       -10.4706  -13.5226   42.3217 H         1 UNK         0.0600 
     42 H42        -9.0418  -13.8592   41.3981 H         1 UNK         0.0600 
     43 H43       -11.7048  -13.9937   38.4165 H         1 UNK         0.0600 
     44 H44       -10.3565  -12.0396   38.3389 H         1 UNK         0.0600 
     45 H45       -15.3437  -11.4473   36.4674 H         1 UNK         0.0300 
     46 H46       -15.0187  -11.6343   38.1859 H         1 UNK         0.0300 
     47 H47       -13.8146  -12.1513   36.9790 H         1 UNK         0.0300 
     48 H48       -12.7800   -5.8253   39.1621 H         1 UNK         0.0300 
     49 H49       -11.6886   -5.5110   37.7899 H         1 UNK         0.0300 
     50 H50       -11.3476   -4.8294   39.3690 H         1 UNK         0.0300 
     51 H51       -12.2765   -8.7530   35.7478 H         1 UNK         0.0300 
@<TRIPOS>BOND
     1    1    3 ar   
     2    1    4 ar   
     3    1   27 1    
     4    2    3 ar   
     5    2    5 ar   
     6    2   28 1    
     7    3    7 1    
     8    4    6 ar   
     9    4   22 1    
    10    5    6 ar   
    11    5   23 1    
    12    6   24 1    
    13    7   20 am   BACKBONE|DICT|INTERRES
    14    7   21 2    
    15    8    9 1    
    16    8   11 1    
    17    8   29 1    
    18    8   30 1    
    19    9   13 1    
    20    9   31 1    
    21    9   32 1    
    22   10   12 1    
    23   10   14 1    
    24   10   33 1    
    25   10   34 1    
    26   11   15 1    
    27   11   35 1    
    28   11   36 1    
    29   12   15 1    
    30   12   37 1    
    31   12   38 1    
    32   13   16 1    
    33   13   39 1    
    34   13   40 1    
    35   14   20 1    
    36   14   41 1    
    37   14   42 1    
    38   15   16 1    
    39   15   43 1    
    40   16   20 1    
    41   16   44 1    
    42   17   22 1    
    43   17   45 1    
    44   17   46 1    
    45   17   47 1    
    46   18   23 1    
    47   18   48 1    
    48   18   49 1    
    49   18   50 1    
    50   19   24 1    
    51   19   25 1    
    52   19   26 1    
    53   19   51 1    
@<TRIPOS>SUBSTRUCTURE
     1 UNK         1 GROUP             0       ****    0 ROOT    
@<TRIPOS>MOLECULE
ZINC79410266_30
45   47    1
SMALL
USER_CHARGES


@<TRIPOS>ATOM
      1 C1         -5.5141  -10.2164   36.7549 C.ar      1 UNK        -0.1150 
      2 C2         -5.6727   -8.8128   36.6935 C.ar      1 UNK        -0.1150 
      3 C3         -5.7101  -10.9040   37.9711 C.ar      1 UNK        -0.1150 
      4 C4         -6.0452   -8.0809   37.8420 C.ar      1 UNK        -0.1150 
      5 C5         -8.7668   -6.7836   38.6697 C.ar      1 UNK        -0.1150 
      6 C6         -7.5430   -4.8801   39.5761 C.ar      1 UNK        -0.1150 
      7 C7         -7.8439   -6.2571   39.5995 C.ar      1 UNK        -0.1150 
      8 C8         -6.0858  -10.1589   39.1019 C.ar      1 UNK        -0.1150 
      9 C9         -6.2824   -8.7833   39.0452 C.ar      1 UNK        -0.0383 
     10 C10        -9.3415   -5.9565   37.6757 C.ar      1 UNK         0.0850 
     11 C11        -8.1178   -4.0315   38.6002 C.ar      1 UNK         0.0850 
     12 C12        -9.0057   -4.5823   37.6497 C.ar      1 UNK         0.1996 
     13 C13        -7.2460   -7.1281   40.6690 C.2       1 UNK         0.6150 
     14 C14        -6.2783  -10.6761   40.4973 C.3       1 UNK        -0.0050 
     15 C15        -6.4604   -9.3799   41.3275 C.3       1 UNK         0.0100 
     16 C16        -5.2432   -9.1164   42.2368 C.3       1 UNK        -0.1800 
     17 C17       -10.5456   -7.7960   36.6979 C.3       1 UNK         0.1100 
     18 C18        -7.0005   -2.0896   39.4762 C.3       1 UNK         0.1100 
     19 C19        -9.1067   -3.8862   35.4363 C.3       1 UNK         0.6167 
     20 N20        -6.6490   -8.3034   40.3325 N.am      1 UNK        -0.0317 
     21 O21        -7.3271   -6.7416   41.8353 O.2       1 UNK        -0.5000 
     22 O22       -10.2172   -6.4145   36.7130 O.3       1 UNK        -0.2850 
     23 O23        -7.8566   -2.6803   38.5100 O.3       1 UNK        -0.2850 
     24 O24        -9.5610   -3.7551   36.7080 O.3       1 UNK        -0.3811 
     25 F25       -10.1267   -3.7181   34.5600 F         1 UNK        -0.2326 
     26 F26        -8.1748   -2.9385   35.1714 F         1 UNK        -0.2326 
     27 H27        -5.2211  -10.7633   35.8701 H         1 UNK         0.1150 
     28 H28        -5.4967   -8.2947   35.7618 H         1 UNK         0.1150 
     29 H29        -5.5618  -11.9726   38.0320 H         1 UNK         0.1150 
     30 H30        -6.1304   -7.0066   37.7776 H         1 UNK         0.1150 
     31 H31        -9.0079   -7.8342   38.7293 H         1 UNK         0.1150 
     32 H32        -6.8642   -4.4974   40.3238 H         1 UNK         0.1150 
     33 H33        -7.1710  -11.3016   40.5325 H         1 UNK         0.0600 
     34 H34        -5.4236  -11.2736   40.8172 H         1 UNK         0.0600 
     35 H35        -7.3530   -9.4732   41.9495 H         1 UNK         0.0600 
     36 H36        -4.3298   -8.9986   41.6523 H         1 UNK         0.0600 
     37 H37        -5.0889   -9.9412   42.9327 H         1 UNK         0.0600 
     38 H38        -5.3739   -8.2129   42.8331 H         1 UNK         0.0600 
     39 H39       -11.2227   -7.9948   35.8670 H         1 UNK         0.0300 
     40 H40       -11.0542   -8.0939   37.6156 H         1 UNK         0.0300 
     41 H41        -9.6597   -8.4169   36.5559 H         1 UNK         0.0300 
     42 H42        -6.9153   -1.0217   39.2747 H         1 UNK         0.0300 
     43 H43        -5.9965   -2.5135   39.4321 H         1 UNK         0.0300 
     44 H44        -7.3987   -2.2031   40.4855 H         1 UNK         0.0300 
     45 H45        -8.6629   -4.8656   35.2548 H         1 UNK         0.0300 
@<TRIPOS>BOND
     1    1    2 ar   
     2    1    3 ar   
     3    1   27 1    
     4    2    4 ar   
     5    2   28 1    
     6    3    8 ar   
     7    3   29 1    
     8    4    9 ar   
     9    4   30 1    
    10    5    7 ar   
    11    5   10 ar   
    12    5   31 1    
    13    6    7 ar   
    14    6   11 ar   
    15    6   32 1    
    16    7   13 1    
    17    8    9 ar   
    18    8   14 1    
    19    9   20 1    
    20   10   12 ar   
    21   10   22 1    
    22   11   12 ar   
    23   11   23 1    
    24   12   24 1    
    25   13   20 am   BACKBONE|DICT|INTERRES
    26   13   21 2    
    27   14   15 1    
    28   14   33 1    
    29   14   34 1    
    30   15   16 1    
    31   15   20 1    
    32   15   35 1    
    33   16   36 1    
    34   16   37 1    
    35   16   38 1    
    36   17   22 1    
    37   17   39 1    
    38   17   40 1    
    39   17   41 1    
    40   18   23 1    
    41   18   42 1    
    42   18   43 1    
    43   18   44 1    
    44   19   24 1    
    45   19   25 1    
    46   19   26 1    
    47   19   45 1    
@<TRIPOS>SUBSTRUCTURE
     1 UNK         1 GROUP             0       ****    0 ROOT    
@<TRIPOS>MOLECULE
ZINC79410267_53
45   47    1
SMALL
USER_CHARGES


@<TRIPOS>ATOM
      1 C1         -8.1064  -12.8281   36.6987 C.ar      1 UNK        -0.1150 
      2 C2         -8.5125  -11.4768   36.6231 C.ar      1 UNK        -0.1150 
      3 C3         -8.2220  -13.5378   37.9117 C.ar      1 UNK        -0.1150 
      4 C4         -9.0509  -10.8233   37.7526 C.ar      1 UNK        -0.1150 
      5 C5        -10.4459   -7.6456   39.5781 C.ar      1 UNK        -0.1150 
      6 C6        -11.7754   -9.5058   38.7327 C.ar      1 UNK        -0.1150 
      7 C7        -10.7786   -9.0153   39.6038 C.ar      1 UNK        -0.1150 
      8 C8         -8.7647  -12.8716   39.0242 C.ar      1 UNK        -0.1150 
      9 C9         -9.1996  -11.5512   38.9569 C.ar      1 UNK        -0.0383 
     10 C10       -11.0598   -6.7702   38.6506 C.ar      1 UNK         0.0850 
     11 C11       -12.3906   -8.6522   37.7870 C.ar      1 UNK         0.0850 
     12 C12       -12.0108   -7.2911   37.7432 C.ar      1 UNK         0.1996 
     13 C13       -10.1337   -9.9201   40.6155 C.2       1 UNK         0.6150 
     14 C14        -8.9223  -13.4304   40.4061 C.3       1 UNK        -0.0050 
     15 C15        -9.4905  -12.2370   41.2129 C.3       1 UNK         0.0100 
     16 C16       -10.7852  -12.6249   41.9580 C.3       1 UNK        -0.1800 
     17 C17        -9.8434   -4.8695   39.4838 C.3       1 UNK         0.1100 
     18 C18       -13.6377  -10.4606   36.8092 C.3       1 UNK         0.1100 
     19 C19       -11.9775   -6.3429   35.6223 C.3       1 UNK         0.6167 
     20 N20        -9.6905  -11.1464   40.2322 N.am      1 UNK        -0.0317 
     21 O21       -10.0072   -9.5087   41.7698 O.2       1 UNK        -0.5000 
     22 O22       -10.7863   -5.4198   38.5764 O.3       1 UNK        -0.2850 
     23 O23       -13.3560   -9.0719   36.8954 O.3       1 UNK        -0.2850 
     24 O24       -12.5963   -6.4567   36.8262 O.3       1 UNK        -0.3811 
     25 F25       -10.7191   -5.8519   35.7443 F         1 UNK        -0.2326 
     26 F26       -11.9137   -7.5316   34.9720 F         1 UNK        -0.2326 
     27 H27        -7.6908  -13.3142   35.8277 H         1 UNK         0.1150 
     28 H28        -8.4016  -10.9346   35.6948 H         1 UNK         0.1150 
     29 H29        -7.8920  -14.5641   37.9840 H         1 UNK         0.1150 
     30 H30        -9.3215   -9.7832   37.6606 H         1 UNK         0.1150 
     31 H31        -9.7130   -7.2891   40.2867 H         1 UNK         0.1150 
     32 H32       -12.0450  -10.5489   38.7993 H         1 UNK         0.1150 
     33 H33        -9.6014  -14.2837   40.3813 H         1 UNK         0.0600 
     34 H34        -7.9606  -13.7635   40.7982 H         1 UNK         0.0600 
     35 H35        -8.7406  -11.9064   41.9344 H         1 UNK         0.0600 
     36 H36       -11.5746  -12.9122   41.2624 H         1 UNK         0.0600 
     37 H37       -11.1621  -11.8050   42.5705 H         1 UNK         0.0600 
     38 H38       -10.6097  -13.4673   42.6276 H         1 UNK         0.0600 
     39 H39        -9.7505   -3.7994   39.2987 H         1 UNK         0.0300 
     40 H40        -8.8561   -5.3135   39.3506 H         1 UNK         0.0300 
     41 H41       -10.1630   -4.9978   40.5190 H         1 UNK         0.0300 
     42 H42       -14.3546  -10.6317   36.0063 H         1 UNK         0.0300 
     43 H43       -14.0818  -10.8353   37.7322 H         1 UNK         0.0300 
     44 H44       -12.7406  -11.0369   36.5775 H         1 UNK         0.0300 
     45 H45       -12.5458   -5.6529   35.0007 H         1 UNK         0.0300 
@<TRIPOS>BOND
     1    1    2 ar   
     2    1    3 ar   
     3    1   27 1    
     4    2    4 ar   
     5    2   28 1    
     6    3    8 ar   
     7    3   29 1    
     8    4    9 ar   
     9    4   30 1    
    10    5    7 ar   
    11    5   10 ar   
    12    5   31 1    
    13    6    7 ar   
    14    6   11 ar   
    15    6   32 1    
    16    7   13 1    
    17    8    9 ar   
    18    8   14 1    
    19    9   20 1    
    20   10   12 ar   
    21   10   22 1    
    22   11   12 ar   
    23   11   23 1    
    24   12   24 1    
    25   13   20 am   BACKBONE|DICT|INTERRES
    26   13   21 2    
    27   14   15 1    
    28   14   33 1    
    29   14   34 1    
    30   15   16 1    
    31   15   20 1    
    32   15   35 1    
    33   16   36 1    
    34   16   37 1    
    35   16   38 1    
    36   17   22 1    
    37   17   39 1    
    38   17   40 1    
    39   17   41 1    
    40   18   23 1    
    41   18   42 1    
    42   18   43 1    
    43   18   44 1    
    44   19   24 1    
    45   19   25 1    
    46   19   26 1    
    47   19   45 1    
@<TRIPOS>SUBSTRUCTURE
     1 UNK         1 GROUP             0       ****    0 ROOT    
@<TRIPOS>MOLECULE
ZINC79473822_122
46   48    1
SMALL
USER_CHARGES


@<TRIPOS>ATOM
      1 C1         -6.2872  -11.0998   36.6846 C.ar      1 UNK        -0.1150 
      2 C2         -6.1473  -13.3856   37.5607 C.ar      1 UNK        -0.1150 
      3 C3         -5.5095  -11.4862   35.5742 C.ar      1 UNK        -0.1150 
      4 C4         -5.3690  -13.7598   36.4468 C.ar      1 UNK        -0.1150 
      5 C5        -10.6832   -8.1865   38.8775 C.ar      1 UNK        -0.1150 
      6 C6         -8.8501   -6.5880   38.9296 C.ar      1 UNK        -0.1150 
      7 C7         -6.6088  -12.0514   37.6820 C.ar      1 UNK         0.0631 
      8 C8         -9.4768   -7.7379   39.4440 C.ar      1 UNK        -0.1150 
      9 C9        -11.2710   -7.4925   37.7939 C.ar      1 UNK         0.0850 
     10 C10        -9.4162   -5.8721   37.8450 C.ar      1 UNK         0.0850 
     11 C11       -10.6473   -6.3267   37.2904 C.ar      1 UNK         0.0850 
     12 C12        -5.0506  -12.8121   35.4555 C.ar      1 UNK         0.1800 
     13 C13        -7.7236  -10.2603   39.1928 C.ar      1 UNK        -0.2947 
     14 C14        -7.4242  -11.6510   38.8641 C.ar      1 UNK         0.3933 
     15 C15        -8.5274   -9.9575   40.2439 C.ar      1 UNK        -0.0567 
     16 C16        -9.0809  -11.0292   41.0831 C.ar      1 UNK         0.5567 
     17 C17       -13.0854   -9.0675   37.6514 C.3       1 UNK         0.1100 
     18 C18        -7.5763   -4.3074   37.8399 C.3       1 UNK         0.1100 
     19 C19       -11.3068   -4.2895   36.2076 C.3       1 UNK         0.1100 
     20 C20        -8.8465   -8.5087   40.5928 C.3       1 UNK        -0.0050 
     21 N21        -7.8999  -12.5874   39.6234 N.2       1 UNK        -0.2833 
     22 N22        -8.6942  -12.2644   40.7030 N.pl3     1 UNK        -0.2934 
     23 O23        -9.8241  -10.8737   42.0460 O.2       1 UNK        -0.5000 
     24 O24       -12.4483   -7.8862   37.1898 O.3       1 UNK        -0.2850 
     25 O25        -8.8003   -4.7684   37.2872 O.3       1 UNK        -0.2850 
     26 O26       -11.2855   -5.7090   36.2342 O.3       1 UNK        -0.2850 
     27 Cl27       -4.0990  -13.2756   34.0949 Cl        1 UNK        -0.1800 
     28 H28        -6.6342  -10.0794   36.7317 H         1 UNK         0.1150 
     29 H29        -6.3745  -14.1305   38.3099 H         1 UNK         0.1150 
     30 H30        -5.2664  -10.7650   34.8072 H         1 UNK         0.1150 
     31 H31        -5.0142  -14.7758   36.3510 H         1 UNK         0.1150 
     32 H32       -11.1393   -9.0725   39.2914 H         1 UNK         0.1150 
     33 H33        -7.9200   -6.2780   39.3788 H         1 UNK         0.1150 
     34 H34        -7.3123   -9.4557   38.6064 H         1 UNK         0.1150 
     35 H35       -13.9829   -9.2454   37.0590 H         1 UNK         0.0300 
     36 H36       -13.3922   -8.9736   38.6939 H         1 UNK         0.0300 
     37 H37       -12.4391   -9.9391   37.5397 H         1 UNK         0.0300 
     38 H38        -7.2447   -3.4267   37.2900 H         1 UNK         0.0300 
     39 H39        -6.7918   -5.0607   37.7566 H         1 UNK         0.0300 
     40 H40        -7.6939   -4.0167   38.8847 H         1 UNK         0.0300 
     41 H41       -12.2042   -3.9568   35.6865 H         1 UNK         0.0300 
     42 H42       -10.4498   -3.8946   35.6619 H         1 UNK         0.0300 
     43 H43       -11.3291   -3.8564   37.2088 H         1 UNK         0.0300 
     44 H44        -7.9249   -8.0245   40.9168 H         1 UNK         0.0600 
     45 H45        -9.5262   -8.4505   41.4446 H         1 UNK         0.0600 
     46 H46        -9.0337  -13.0462   41.2416 H         1 UNK         0.3000 
@<TRIPOS>BOND
     1    1    3 ar   
     2    1    7 ar   
     3    1   28 1    
     4    2    4 ar   
     5    2    7 ar   
     6    2   29 1    
     7    3   12 ar   
     8    3   30 1    
     9    4   12 ar   
    10    4   31 1    
    11    5    8 ar   
    12    5    9 ar   
    13    5   32 1    
    14    6    8 ar   
    15    6   10 ar   
    16    6   33 1    
    17    7   14 1    
    18    8   20 1    
    19    9   11 ar   
    20    9   24 1    
    21   10   11 ar   
    22   10   25 1    
    23   11   26 1    
    24   12   27 1    
    25   13   14 ar   
    26   13   15 ar   
    27   13   34 1    
    28   14   21 ar   
    29   15   16 ar   
    30   15   20 1    
    31   16   22 ar   
    32   16   23 2    
    33   17   24 1    
    34   17   35 1    
    35   17   36 1    
    36   17   37 1    
    37   18   25 1    
    38   18   38 1    
    39   18   39 1    
    40   18   40 1    
    41   19   26 1    
    42   19   41 1    
    43   19   42 1    
    44   19   43 1    
    45   20   44 1    
    46   20   45 1    
    47   21   22 ar   
    48   22   46 1    
@<TRIPOS>SUBSTRUCTURE
     1 UNK         1 GROUP             0       ****    0 ROOT    
@<TRIPOS>MOLECULE
ZINC79488590_112
46   48    1
SMALL
USER_CHARGES


@<TRIPOS>ATOM
      1 C1         -5.0317  -12.0179   35.2658 C.ar      1 UNK        -0.1150 
      2 C2         -6.0534  -11.0512   35.2722 C.ar      1 UNK        -0.1150 
      3 C3         -4.7123  -12.7024   36.4522 C.ar      1 UNK        -0.1150 
      4 C4         -6.7509  -10.7701   36.4637 C.ar      1 UNK        -0.1150 
      5 C5         -5.4135  -12.4174   37.6402 C.ar      1 UNK        -0.1150 
      6 C6        -10.5446   -7.8167   38.8764 C.ar      1 UNK        -0.1150 
      7 C7         -8.6382   -6.3471   39.2245 C.ar      1 UNK        -0.1150 
      8 C8         -7.6912   -9.8585   39.2018 C.ar      1 UNK        -0.1600 
      9 C9         -6.4437  -11.4471   37.6685 C.ar      1 UNK         0.0000 
     10 C10        -9.3954   -7.4695   39.6068 C.ar      1 UNK        -0.1150 
     11 C11        -8.3790   -9.6639   40.4191 C.ar      1 UNK        -0.1530 
     12 C12       -10.9377   -7.0548   37.7515 C.ar      1 UNK         0.0850 
     13 C13        -9.0113   -5.5599   38.1059 C.ar      1 UNK         0.0850 
     14 C14       -10.1651   -5.9368   37.3554 C.ar      1 UNK         0.0850 
     15 C15        -7.1683  -11.1396   38.9223 C.ar      1 UNK         0.3690 
     16 C16        -8.4747  -10.7772   41.2808 C.ar      1 UNK         0.5190 
     17 C17       -12.8700   -8.4429   37.3747 C.3       1 UNK         0.1100 
     18 C18        -7.1740   -4.0385   38.5031 C.3       1 UNK         0.1100 
     19 C19        -9.7102   -4.5988   35.3952 C.3       1 UNK         0.1100 
     20 C20        -8.9741   -8.3137   40.7992 C.3       1 UNK         0.1100 
     21 N21        -7.3106  -12.1585   39.8077 N.ar      1 UNK        -0.3310 
     22 N22        -7.9502  -11.9793   40.9681 N.ar      1 UNK        -0.3310 
     23 O23        -9.1001  -10.6789   42.4796 O.3       1 UNK        -0.5850 
     24 O24       -12.0491   -7.3515   36.9879 O.3       1 UNK        -0.2850 
     25 O25        -8.3048   -4.4308   37.7386 O.3       1 UNK        -0.2850 
     26 O26       -10.6337   -5.2619   36.2443 O.3       1 UNK        -0.2850 
     27 H27        -4.4962  -12.2361   34.3527 H         1 UNK         0.1150 
     28 H28        -6.3060  -10.5266   34.3619 H         1 UNK         0.1150 
     29 H29        -3.9298  -13.4476   36.4535 H         1 UNK         0.1150 
     30 H30        -7.5394  -10.0323   36.4413 H         1 UNK         0.1150 
     31 H31        -5.1555  -12.9509   38.5444 H         1 UNK         0.1150 
     32 H32       -11.1055   -8.6823   39.1938 H         1 UNK         0.1150 
     33 H33        -7.7678   -6.1052   39.8137 H         1 UNK         0.1150 
     34 H34        -7.5620   -9.0486   38.5010 H         1 UNK         0.1220 
     35 H35       -13.7088   -8.5231   36.6835 H         1 UNK         0.0300 
     36 H36       -13.2808   -8.2977   38.3746 H         1 UNK         0.0300 
     37 H37       -12.3235   -9.3863   37.3393 H         1 UNK         0.0300 
     38 H38        -6.7514   -3.1293   38.0757 H         1 UNK         0.0300 
     39 H39        -6.3950   -4.8018   38.4846 H         1 UNK         0.0300 
     40 H40        -7.4459   -3.8193   39.5365 H         1 UNK         0.0300 
     41 H41       -10.1488   -4.5012   34.4024 H         1 UNK         0.0300 
     42 H42        -8.7769   -5.1532   35.2876 H         1 UNK         0.0300 
     43 H43        -9.4986   -3.5917   35.7548 H         1 UNK         0.0300 
     44 H44        -8.2486   -7.7753   41.4096 H         1 UNK         0.0600 
     45 H45        -9.8507   -8.4632   41.4312 H         1 UNK         0.0600 
     46 H46        -9.0542  -11.5250   42.8982 H         1 UNK         0.4350 
@<TRIPOS>BOND
     1    1    2 ar   
     2    1    3 ar   
     3    1   27 1    
     4    2    4 ar   
     5    2   28 1    
     6    3    5 ar   
     7    3   29 1    
     8    4    9 ar   
     9    4   30 1    
    10    5    9 ar   
    11    5   31 1    
    12    6   10 ar   
    13    6   12 ar   
    14    6   32 1    
    15    7   10 ar   
    16    7   13 ar   
    17    7   33 1    
    18    8   11 ar   
    19    8   15 ar   
    20    8   34 1    
    21    9   15 1    
    22   10   20 1    
    23   11   16 ar   
    24   11   20 1    
    25   12   14 ar   
    26   12   24 1    
    27   13   14 ar   
    28   13   25 1    
    29   14   26 1    
    30   15   21 ar   
    31   16   22 ar   
    32   16   23 1    
    33   17   24 1    
    34   17   35 1    
    35   17   36 1    
    36   17   37 1    
    37   18   25 1    
    38   18   38 1    
    39   18   39 1    
    40   18   40 1    
    41   19   26 1    
    42   19   41 1    
    43   19   42 1    
    44   19   43 1    
    45   20   44 1    
    46   20   45 1    
    47   21   22 ar   
    48   23   46 1    
@<TRIPOS>SUBSTRUCTURE
     1 UNK         1 GROUP             0       ****    0 ROOT    
@<TRIPOS>MOLECULE
ZINC79493296_40
52   54    1
SMALL
USER_CHARGES


@<TRIPOS>ATOM
      1 C1         -7.8538  -14.0044   37.3922 C.ar      1 UNK        -0.1150 
      2 C2         -8.1870  -13.7394   36.0494 C.ar      1 UNK        -0.1150 
      3 C3         -7.4343  -11.4361   36.3098 C.ar      1 UNK        -0.1150 
      4 C4         -7.7100   -6.2155   38.4754 C.ar      1 UNK        -0.1150 
      5 C5         -9.3940   -5.3444   39.9960 C.ar      1 UNK        -0.1150 
      6 C6         -7.0985  -11.7004   37.6550 C.ar      1 UNK        -0.1150 
      7 C7         -8.2910   -6.1866   39.7618 C.ar      1 UNK        -0.1150 
      8 C8         -7.3077  -12.9871   38.2015 C.ar      1 UNK         0.0308 
      9 C9         -8.2354   -5.4395   37.4131 C.ar      1 UNK         0.0850 
     10 C10        -9.9253   -4.5403   38.9607 C.ar      1 UNK         0.0850 
     11 C11        -9.3404   -4.5778   37.6730 C.ar      1 UNK         0.0850 
     12 C12        -7.9774  -12.4568   35.5092 C.ar      1 UNK         0.2200 
     13 C13        -6.5147  -10.6365   38.5361 C.ar      1 UNK         0.6150 
     14 C14        -6.4782  -12.3254   40.2628 C.ar      1 UNK         0.4815 
     15 C15        -7.7428   -7.0206   40.8848 C.2       1 UNK         0.6150 
     16 C16        -6.1663  -12.6215   41.7241 C.3       1 UNK        -0.1800 
     17 C17        -6.7411   -6.4952   35.8331 C.3       1 UNK         0.1100 
     18 C18       -11.5935   -3.6028   40.4227 C.3       1 UNK         0.1100 
     19 C19        -9.1130   -3.1719   35.7301 C.3       1 UNK         0.1100 
     20 C20        -5.5277  -10.0212   40.6879 C.3       1 UNK        -0.0500 
     21 C21        -6.5337   -9.1156   41.4274 C.3       1 UNK         0.0800 
     22 N22        -6.9898  -13.2708   39.5344 N.2       1 UNK        -0.3898 
     23 N23        -6.1948  -11.0077   39.8056 N.pl3     1 UNK        -0.1925 
     24 N24        -7.0890   -8.1265   40.5181 N.am      1 UNK        -0.5000 
     25 O25        -6.3493   -9.4915   38.1000 O.2       1 UNK        -0.5000 
     26 O26        -7.9469   -6.7307   42.0615 O.2       1 UNK        -0.5000 
     27 O27        -7.7217   -5.5111   36.1326 O.3       1 UNK        -0.2850 
     28 O28       -11.0017   -3.6933   39.1356 O.3       1 UNK        -0.2850 
     29 O29        -9.9322   -3.7656   36.7256 O.3       1 UNK        -0.2850 
     30 F30        -8.2974  -12.2056   34.2189 F         1 UNK        -0.2200 
     31 H31        -8.0205  -14.9917   37.7991 H         1 UNK         0.1150 
     32 H32        -8.6055  -14.5184   35.4297 H         1 UNK         0.1150 
     33 H33        -7.2778  -10.4545   35.8861 H         1 UNK         0.1150 
     34 H34        -6.8537   -6.8494   38.3103 H         1 UNK         0.1150 
     35 H35        -9.8184   -5.3313   40.9887 H         1 UNK         0.1150 
     36 H36        -5.0935  -12.7475   41.8695 H         1 UNK         0.0600 
     37 H37        -6.6482  -13.5512   42.0296 H         1 UNK         0.0600 
     38 H38        -6.5374  -11.8421   42.3879 H         1 UNK         0.0600 
     39 H39        -6.5188   -6.4653   34.7666 H         1 UNK         0.0300 
     40 H40        -7.0960   -7.5005   36.0655 H         1 UNK         0.0300 
     41 H41        -5.8090   -6.3062   36.3667 H         1 UNK         0.0300 
     42 H42       -12.4113   -2.8829   40.3912 H         1 UNK         0.0300 
     43 H43       -10.8771   -3.2543   41.1678 H         1 UNK         0.0300 
     44 H44       -12.0097   -4.5603   40.7389 H         1 UNK         0.0300 
     45 H45        -9.5861   -2.2541   35.3816 H         1 UNK         0.0300 
     46 H46        -9.0061   -3.8284   34.8665 H         1 UNK         0.0300 
     47 H47        -8.1252   -2.9072   36.1107 H         1 UNK         0.0300 
     48 H48        -4.8688  -10.5012   41.4100 H         1 UNK         0.0600 
     49 H49        -4.8356   -9.4028   40.1116 H         1 UNK         0.0600 
     50 H50        -7.3416   -9.6880   41.8852 H         1 UNK         0.0600 
     51 H51        -6.0203   -8.5955   42.2391 H         1 UNK         0.0600 
     52 H52        -6.9863   -8.2984   39.5239 H         1 UNK         0.3000 
@<TRIPOS>BOND
     1    1    2 ar   
     2    1    8 ar   
     3    1   31 1    
     4    2   12 ar   
     5    2   32 1    
     6    3    6 ar   
     7    3   12 ar   
     8    3   33 1    
     9    4    7 ar   
    10    4    9 ar   
    11    4   34 1    
    12    5    7 ar   
    13    5   10 ar   
    14    5   35 1    
    15    6    8 ar   
    16    6   13 ar   
    17    7   15 1    
    18    8   22 ar   
    19    9   11 ar   
    20    9   27 1    
    21   10   11 ar   
    22   10   28 1    
    23   11   29 1    
    24   12   30 1    
    25   13   23 ar   
    26   13   25 2    
    27   14   16 1    
    28   14   22 ar   
    29   14   23 ar   
    30   15   24 am   BACKBONE|DICT|INTERRES
    31   15   26 2    
    32   16   36 1    
    33   16   37 1    
    34   16   38 1    
    35   17   27 1    
    36   17   39 1    
    37   17   40 1    
    38   17   41 1    
    39   18   28 1    
    40   18   42 1    
    41   18   43 1    
    42   18   44 1    
    43   19   29 1    
    44   19   45 1    
    45   19   46 1    
    46   19   47 1    
    47   20   21 1    
    48   20   23 1    
    49   20   48 1    
    50   20   49 1    
    51   21   24 1    
    52   21   50 1    
    53   21   51 1    
    54   24   52 1    
@<TRIPOS>SUBSTRUCTURE
     1 UNK         1 GROUP             0       ****    0 ROOT    
@<TRIPOS>MOLECULE
ZINC79582251_68
45   47    1
SMALL
USER_CHARGES


@<TRIPOS>ATOM
      1 C1         -9.9329  -14.2205   36.5532 C.ar      1 UNK        -0.1150 
      2 C2        -10.1336  -12.8212   36.5528 C.ar      1 UNK        -0.1150 
      3 C3        -10.0882  -14.9625   37.7429 C.ar      1 UNK        -0.1150 
      4 C4        -10.5078  -12.1486   37.7364 C.ar      1 UNK        -0.1150 
      5 C5        -13.1190  -10.7407   38.7873 C.ar      1 UNK        -0.1150 
      6 C6        -11.7534   -8.9664   39.7518 C.ar      1 UNK        -0.1150 
      7 C7        -12.1230  -10.3258   39.6979 C.ar      1 UNK        -0.1150 
      8 C8        -10.4662  -14.2782   38.9115 C.ar      1 UNK        -0.1150 
      9 C9        -10.7009  -12.9059   38.9142 C.ar      1 UNK        -0.0383 
     10 C10       -13.7043   -9.8184   37.8879 C.ar      1 UNK         0.0850 
     11 C11       -12.3360   -8.0242   38.8708 C.ar      1 UNK         0.0850 
     12 C12       -13.3006   -8.4631   37.9372 C.ar      1 UNK         0.1996 
     13 C13       -11.5186  -11.2994   40.6705 C.2       1 UNK         0.6150 
     14 C14       -10.8745  -13.6133   41.1618 C.3       1 UNK        -0.0500 
     15 C15       -10.6278  -14.8663   40.2868 C.3       1 UNK         0.0550 
     16 C16       -11.7749  -15.8843   40.3529 C.3       1 UNK        -0.1800 
     17 C17       -15.0506  -11.5258   36.8563 C.3       1 UNK         0.1100 
     18 C18       -11.0768   -6.2044   39.8130 C.3       1 UNK         0.1100 
     19 C19       -13.4970   -7.6123   35.7844 C.3       1 UNK         0.6167 
     20 N20       -11.0505  -12.4926   40.2276 N.am      1 UNK        -0.0317 
     21 O21       -11.4588  -10.9783   41.8578 O.2       1 UNK        -0.5000 
     22 O22       -14.6546  -10.1651   36.9496 O.3       1 UNK        -0.2850 
     23 O23       -12.0126   -6.6835   38.8591 O.3       1 UNK        -0.2850 
     24 O24       -13.8631   -7.5445   37.0891 O.3       1 UNK        -0.3811 
     25 F25       -14.5623   -7.3476   34.9896 F         1 UNK        -0.2326 
     26 F26       -12.5421   -6.6884   35.5166 F         1 UNK        -0.2326 
     27 H27        -9.6409  -14.7221   35.6417 H         1 UNK         0.1150 
     28 H28        -9.9880  -12.2602   35.6409 H         1 UNK         0.1150 
     29 H29        -9.9103  -16.0281   37.7564 H         1 UNK         0.1150 
     30 H30       -10.6233  -11.0756   37.7141 H         1 UNK         0.1150 
     31 H31       -13.4098  -11.7805   38.7879 H         1 UNK         0.1150 
     32 H32       -11.0173   -8.6697   40.4843 H         1 UNK         0.1150 
     33 H33       -11.7388  -13.7307   41.8181 H         1 UNK         0.0600 
     34 H34       -10.0073  -13.4090   41.7918 H         1 UNK         0.0600 
     35 H35        -9.6927  -15.3469   40.5784 H         1 UNK         0.0600 
     36 H36       -12.7222  -15.4332   40.0548 H         1 UNK         0.0600 
     37 H37       -11.8938  -16.2759   41.3635 H         1 UNK         0.0600 
     38 H38       -11.5880  -16.7305   39.6914 H         1 UNK         0.0600 
     39 H39       -15.7850  -11.6317   36.0578 H         1 UNK         0.0300 
     40 H40       -15.5176  -11.8697   37.7802 H         1 UNK         0.0300 
     41 H41       -14.2060  -12.1727   36.6139 H         1 UNK         0.0300 
     42 H42       -10.9515   -5.1292   39.6849 H         1 UNK         0.0300 
     43 H43       -10.0987   -6.6680   39.6787 H         1 UNK         0.0300 
     44 H44       -11.4233   -6.3756   40.8332 H         1 UNK         0.0300 
     45 H45       -13.1096   -8.5952   35.5143 H         1 UNK         0.0300 
@<TRIPOS>BOND
     1    1    2 ar   
     2    1    3 ar   
     3    1   27 1    
     4    2    4 ar   
     5    2   28 1    
     6    3    8 ar   
     7    3   29 1    
     8    4    9 ar   
     9    4   30 1    
    10    5    7 ar   
    11    5   10 ar   
    12    5   31 1    
    13    6    7 ar   
    14    6   11 ar   
    15    6   32 1    
    16    7   13 1    
    17    8    9 ar   
    18    8   15 1    
    19    9   20 1    
    20   10   12 ar   
    21   10   22 1    
    22   11   12 ar   
    23   11   23 1    
    24   12   24 1    
    25   13   20 am   BACKBONE|DICT|INTERRES
    26   13   21 2    
    27   14   15 1    
    28   14   20 1    
    29   14   33 1    
    30   14   34 1    
    31   15   16 1    
    32   15   35 1    
    33   16   36 1    
    34   16   37 1    
    35   16   38 1    
    36   17   22 1    
    37   17   39 1    
    38   17   40 1    
    39   17   41 1    
    40   18   23 1    
    41   18   42 1    
    42   18   43 1    
    43   18   44 1    
    44   19   24 1    
    45   19   25 1    
    46   19   26 1    
    47   19   45 1    
@<TRIPOS>SUBSTRUCTURE
     1 UNK         1 GROUP             0       ****    0 ROOT    
@<TRIPOS>MOLECULE
ZINC79582256_80
45   47    1
SMALL
USER_CHARGES


@<TRIPOS>ATOM
      1 C1         -9.7808  -14.2810   36.5648 C.ar      1 UNK        -0.1150 
      2 C2         -9.8931  -12.8753   36.6625 C.ar      1 UNK        -0.1150 
      3 C3        -10.0235  -15.0957   37.6906 C.ar      1 UNK        -0.1150 
      4 C4        -10.2647  -12.2670   37.8810 C.ar      1 UNK        -0.1150 
      5 C5        -12.8399  -10.7638   38.9815 C.ar      1 UNK        -0.1150 
      6 C6        -11.3239   -9.1802   40.0349 C.ar      1 UNK        -0.1150 
      7 C7        -11.8194  -10.4924   39.9162 C.ar      1 UNK        -0.1150 
      8 C8        -10.3912  -14.4740   38.8974 C.ar      1 UNK        -0.1150 
      9 C9        -10.5415  -13.0928   38.9941 C.ar      1 UNK        -0.0383 
     10 C10       -13.3180   -9.7471   38.1211 C.ar      1 UNK         0.0850 
     11 C11       -11.7962   -8.1432   39.2091 C.ar      1 UNK         0.0850 
     12 C12       -12.7779   -8.4398   38.2212 C.ar      1 UNK         0.1996 
     13 C13       -11.3169  -11.5664   40.8386 C.2       1 UNK         0.6150 
     14 C14       -10.7912  -13.9393   41.1825 C.3       1 UNK        -0.0500 
     15 C15       -10.6582  -15.1428   40.2192 C.3       1 UNK         0.0550 
     16 C16        -9.5764  -16.1477   40.6389 C.3       1 UNK        -0.1800 
     17 C17       -14.8745  -11.2493   37.0605 C.3       1 UNK         0.1100 
     18 C18       -11.9550   -5.7382   39.0923 C.3       1 UNK         0.1100 
     19 C19       -12.8856   -7.6113   36.0444 C.3       1 UNK         0.6167 
     20 N20       -10.9064  -12.7523   40.3248 N.am      1 UNK        -0.0317 
     21 O21       -11.2901  -11.3360   42.0476 O.2       1 UNK        -0.5000 
     22 O22       -14.2901   -9.9590   37.1646 O.3       1 UNK        -0.2850 
     23 O23       -11.2225   -6.9080   39.4283 O.3       1 UNK        -0.2850 
     24 O24       -13.2213   -7.4726   37.3540 O.3       1 UNK        -0.3811 
     25 F25       -13.9612   -7.3576   35.2606 F         1 UNK        -0.2326 
     26 F26       -11.9169   -6.7222   35.7173 F         1 UNK        -0.2326 
     27 H27        -9.4915  -14.7335   35.6270 H         1 UNK         0.1150 
     28 H28        -9.6822  -12.2605   35.7993 H         1 UNK         0.1150 
     29 H29        -9.9191  -16.1689   37.6262 H         1 UNK         0.1150 
     30 H30       -10.3117  -11.1901   37.9351 H         1 UNK         0.1150 
     31 H31       -13.2298  -11.7693   38.9313 H         1 UNK         0.1150 
     32 H32       -10.5718   -8.9595   40.7798 H         1 UNK         0.1150 
     33 H33       -11.6462  -14.0525   41.8510 H         1 UNK         0.0600 
     34 H34        -9.8989  -13.8228   41.8000 H         1 UNK         0.0600 
     35 H35       -11.6198  -15.6519   40.1371 H         1 UNK         0.0600 
     36 H36        -8.5968  -15.6720   40.6986 H         1 UNK         0.0600 
     37 H37        -9.5026  -16.9706   39.9277 H         1 UNK         0.0600 
     38 H38        -9.7998  -16.5771   41.6158 H         1 UNK         0.0600 
     39 H39       -15.6263  -11.2394   36.2712 H         1 UNK         0.0300 
     40 H40       -15.3741  -11.5367   37.9866 H         1 UNK         0.0300 
     41 H41       -14.1325  -12.0049   36.7982 H         1 UNK         0.0300 
     42 H42       -13.0122   -5.8259   39.3477 H         1 UNK         0.0300 
     43 H43       -11.8538   -5.4968   38.0348 H         1 UNK         0.0300 
     44 H44       -11.5540   -4.8944   39.6535 H         1 UNK         0.0300 
     45 H45       -12.5203   -8.6118   35.8102 H         1 UNK         0.0300 
@<TRIPOS>BOND
     1    1    2 ar   
     2    1    3 ar   
     3    1   27 1    
     4    2    4 ar   
     5    2   28 1    
     6    3    8 ar   
     7    3   29 1    
     8    4    9 ar   
     9    4   30 1    
    10    5    7 ar   
    11    5   10 ar   
    12    5   31 1    
    13    6    7 ar   
    14    6   11 ar   
    15    6   32 1    
    16    7   13 1    
    17    8    9 ar   
    18    8   15 1    
    19    9   20 1    
    20   10   12 ar   
    21   10   22 1    
    22   11   12 ar   
    23   11   23 1    
    24   12   24 1    
    25   13   20 am   BACKBONE|DICT|INTERRES
    26   13   21 2    
    27   14   15 1    
    28   14   20 1    
    29   14   33 1    
    30   14   34 1    
    31   15   16 1    
    32   15   35 1    
    33   16   36 1    
    34   16   37 1    
    35   16   38 1    
    36   17   22 1    
    37   17   39 1    
    38   17   40 1    
    39   17   41 1    
    40   18   23 1    
    41   18   42 1    
    42   18   43 1    
    43   18   44 1    
    44   19   24 1    
    45   19   25 1    
    46   19   26 1    
    47   19   45 1    
@<TRIPOS>SUBSTRUCTURE
     1 UNK         1 GROUP             0       ****    0 ROOT    
@<TRIPOS>MOLECULE
ZINC79812529_56
45   47    1
SMALL
USER_CHARGES


@<TRIPOS>ATOM
      1 C1         -8.2423  -13.5550   38.0704 C.ar      1 UNK        -0.1150 
      2 C2         -8.1085  -12.8898   36.8333 C.ar      1 UNK        -0.1150 
      3 C3        -11.5440   -9.4650   38.7012 C.ar      1 UNK        -0.1150 
      4 C4        -10.3059   -7.5615   39.5882 C.ar      1 UNK        -0.1150 
      5 C5         -8.8411  -10.7838   37.8549 C.ar      1 UNK        -0.1150 
      6 C6        -10.6159   -8.9360   39.6242 C.ar      1 UNK        -0.1150 
      7 C7         -8.6923  -12.8168   39.1782 C.ar      1 UNK        -0.1150 
      8 C8         -8.3979  -11.5083   36.7261 C.ar      1 UNK        -0.1150 
      9 C9         -9.0184  -11.4678   39.0786 C.ar      1 UNK        -0.0383 
     10 C10       -12.0998   -8.6481   37.6889 C.ar      1 UNK         0.0850 
     11 C11       -10.8637   -6.7218   38.5946 C.ar      1 UNK         0.0850 
     12 C12       -11.7369   -7.2830   37.6344 C.ar      1 UNK         0.1996 
     13 C13       -10.0122   -9.8070   40.6894 C.2       1 UNK         0.6150 
     14 C14        -8.8645  -13.3162   40.5837 C.3       1 UNK        -0.0050 
     15 C15        -9.2194  -12.0306   41.3639 C.3       1 UNK        -0.0500 
     16 C16        -8.2367  -10.7979   35.3976 C.3       1 UNK        -0.0650 
     17 C17       -13.2341  -10.5053   36.6676 C.3       1 UNK         0.1100 
     18 C18        -9.7155   -4.7844   39.4400 C.3       1 UNK         0.1100 
     19 C19       -11.5449   -6.3931   35.4971 C.3       1 UNK         0.6167 
     20 N20        -9.4447  -10.9915   40.3485 N.am      1 UNK        -0.0317 
     21 O21       -10.0413   -9.4107   41.8552 O.2       1 UNK        -0.5000 
     22 O22       -12.9858   -9.1093   36.7372 O.3       1 UNK        -0.2850 
     23 O23       -10.6041   -5.3699   38.5008 O.3       1 UNK        -0.2850 
     24 O24       -12.2597   -6.4864   36.6485 O.3       1 UNK        -0.3811 
     25 F25       -10.3144   -5.8627   35.7067 F         1 UNK        -0.2326 
     26 F26       -11.3948   -7.5995   34.8951 F         1 UNK        -0.2326 
     27 H27        -8.0002  -14.6038   38.1620 H         1 UNK         0.1150 
     28 H28        -7.7686  -13.4412   35.9684 H         1 UNK         0.1150 
     29 H29       -11.7976  -10.5117   38.7739 H         1 UNK         0.1150 
     30 H30        -9.6295   -7.1753   40.3361 H         1 UNK         0.1150 
     31 H31        -9.0286   -9.7256   37.7569 H         1 UNK         0.1150 
     32 H32        -9.6744  -14.0456   40.6190 H         1 UNK         0.0600 
     33 H33        -7.9511  -13.7832   40.9537 H         1 UNK         0.0600 
     34 H34       -10.0943  -12.1767   41.9995 H         1 UNK         0.0600 
     35 H35        -8.3887  -11.7235   42.0011 H         1 UNK         0.0600 
     36 H36        -9.1864  -10.7817   34.8621 H         1 UNK         0.0600 
     37 H37        -7.9115   -9.7674   35.5448 H         1 UNK         0.0600 
     38 H38        -7.4964  -11.2973   34.7722 H         1 UNK         0.0600 
     39 H39       -13.8863  -10.7114   35.8190 H         1 UNK         0.0300 
     40 H40       -13.7386  -10.8649   37.5652 H         1 UNK         0.0300 
     41 H41       -12.3115  -11.0688   36.5189 H         1 UNK         0.0300 
     42 H42        -9.6101   -3.7221   39.2198 H         1 UNK         0.0300 
     43 H43        -8.7224   -5.2319   39.3826 H         1 UNK         0.0300 
     44 H44       -10.0964   -4.8735   40.4584 H         1 UNK         0.0300 
     45 H45       -12.0766   -5.7400   34.8070 H         1 UNK         0.0300 
@<TRIPOS>BOND
     1    1    2 ar   
     2    1    7 ar   
     3    1   27 1    
     4    2    8 ar   
     5    2   28 1    
     6    3    6 ar   
     7    3   10 ar   
     8    3   29 1    
     9    4    6 ar   
    10    4   11 ar   
    11    4   30 1    
    12    5    8 ar   
    13    5    9 ar   
    14    5   31 1    
    15    6   13 1    
    16    7    9 ar   
    17    7   14 1    
    18    8   16 1    
    19    9   20 1    
    20   10   12 ar   
    21   10   22 1    
    22   11   12 ar   
    23   11   23 1    
    24   12   24 1    
    25   13   20 am   BACKBONE|DICT|INTERRES
    26   13   21 2    
    27   14   15 1    
    28   14   32 1    
    29   14   33 1    
    30   15   20 1    
    31   15   34 1    
    32   15   35 1    
    33   16   36 1    
    34   16   37 1    
    35   16   38 1    
    36   17   22 1    
    37   17   39 1    
    38   17   40 1    
    39   17   41 1    
    40   18   23 1    
    41   18   42 1    
    42   18   43 1    
    43   18   44 1    
    44   19   24 1    
    45   19   25 1    
    46   19   26 1    
    47   19   45 1    
@<TRIPOS>SUBSTRUCTURE
     1 UNK         1 GROUP             0       ****    0 ROOT    
@<TRIPOS>MOLECULE
ZINC80487329_62
51   53    1
SMALL
USER_CHARGES


@<TRIPOS>ATOM
      1 C1        -17.1102  -15.1764   39.2606 C.ar      1 UNK        -0.1150 
      2 C2        -15.2414  -15.7780   37.8258 C.ar      1 UNK        -0.1150 
      3 C3        -16.0332  -16.0338   38.9649 C.ar      1 UNK        -0.1150 
      4 C4        -17.4080  -14.0734   38.4251 C.ar      1 UNK         0.0850 
      5 C5        -15.5254  -14.7022   36.9650 C.ar      1 UNK         0.0850 
      6 C6        -16.6025  -13.8266   37.2839 C.ar      1 UNK         0.1996 
      7 C7        -15.7154  -17.1753   39.8845 C.2       1 UNK         0.6150 
      8 C8        -10.5117  -19.2811   36.3737 C.3       1 UNK        -0.1200 
      9 C9        -11.2164  -18.1181   37.0905 C.3       1 UNK        -0.1200 
     10 C10       -11.4906  -20.4289   36.0788 C.3       1 UNK        -0.1200 
     11 C11       -11.9186  -18.6004   38.3699 C.3       1 UNK        -0.1200 
     12 C12       -12.2000  -20.9015   37.3589 C.3       1 UNK        -0.1200 
     13 C13       -15.0090  -20.7892   39.2637 C.3       1 UNK        -0.1200 
     14 C14       -12.9154  -19.7362   38.0680 C.3       1 UNK        -0.0600 
     15 C15       -13.6238  -20.2071   39.3301 C.3       1 UNK        -0.0600 
     16 C16       -14.7857  -19.4518   39.9469 C.3       1 UNK         0.0625 
     17 C17       -19.2866  -13.4325   39.7903 C.3       1 UNK         0.1100 
     18 C18       -15.1350  -13.9087   34.7159 C.3       1 UNK         0.1100 
     19 C19       -16.6688  -11.5068   37.0436 C.3       1 UNK         0.6167 
     20 N20       -15.2354  -18.2706   39.2860 N.am      1 UNK        -0.4225 
     21 O21       -15.9321  -17.0953   41.0915 O.2       1 UNK        -0.5000 
     22 O22       -18.4512  -13.2018   38.6648 O.3       1 UNK        -0.2850 
     23 O23       -14.6839  -14.5917   35.8767 O.3       1 UNK        -0.2850 
     24 O24       -16.8802  -12.7346   36.4997 O.3       1 UNK        -0.3811 
     25 F25       -15.5619  -10.9441   36.5009 F         1 UNK        -0.2326 
     26 F26       -17.7187  -10.6940   36.7736 F         1 UNK        -0.2326 
     27 H27       -17.6930  -15.3868   40.1454 H         1 UNK         0.1150 
     28 H28       -14.3947  -16.4076   37.5930 H         1 UNK         0.1150 
     29 H29       -10.0605  -18.9281   35.4454 H         1 UNK         0.0600 
     30 H30        -9.6921  -19.6493   36.9927 H         1 UNK         0.0600 
     31 H31       -10.4931  -17.3390   37.3340 H         1 UNK         0.0600 
     32 H32       -11.9459  -17.6609   36.4203 H         1 UNK         0.0600 
     33 H33       -12.2317  -20.0996   35.3492 H         1 UNK         0.0600 
     34 H34       -10.9575  -21.2626   35.6198 H         1 UNK         0.0600 
     35 H35       -11.1720  -18.9451   39.0871 H         1 UNK         0.0600 
     36 H36       -12.4301  -17.7617   38.8436 H         1 UNK         0.0600 
     37 H37       -12.9168  -21.6857   37.1117 H         1 UNK         0.0600 
     38 H38       -11.4707  -21.3534   38.0328 H         1 UNK         0.0600 
     39 H39       -15.5142  -20.7939   38.2996 H         1 UNK         0.0600 
     40 H40       -15.2208  -21.6474   39.8990 H         1 UNK         0.0600 
     41 H41       -13.6685  -19.3513   37.3794 H         1 UNK         0.0600 
     42 H42       -12.9503  -20.6750   40.0470 H         1 UNK         0.0600 
     43 H43       -14.8333  -19.4562   41.0359 H         1 UNK         0.0600 
     44 H44       -20.0601  -12.6655   39.8266 H         1 UNK         0.0300 
     45 H45       -18.7244  -13.3762   40.7234 H         1 UNK         0.0300 
     46 H46       -19.7858  -14.4004   39.7257 H         1 UNK         0.0300 
     47 H47       -15.0275  -12.8298   34.8218 H         1 UNK         0.0300 
     48 H48       -16.1703  -14.1515   34.4711 H         1 UNK         0.0300 
     49 H49       -14.5216  -14.2096   33.8668 H         1 UNK         0.0300 
     50 H50       -16.5336  -11.5449   38.1249 H         1 UNK         0.0300 
     51 H51       -15.1419  -18.2369   38.2842 H         1 UNK         0.3000 
@<TRIPOS>BOND
     1    1    3 ar   
     2    1    4 ar   
     3    1   27 1    
     4    2    3 ar   
     5    2    5 ar   
     6    2   28 1    
     7    3    7 1    
     8    4    6 ar   
     9    4   22 1    
    10    5    6 ar   
    11    5   23 1    
    12    6   24 1    
    13    7   20 am   BACKBONE|DICT|INTERRES
    14    7   21 2    
    15    8    9 1    
    16    8   10 1    
    17    8   29 1    
    18    8   30 1    
    19    9   11 1    
    20    9   31 1    
    21    9   32 1    
    22   10   12 1    
    23   10   33 1    
    24   10   34 1    
    25   11   14 1    
    26   11   35 1    
    27   11   36 1    
    28   12   14 1    
    29   12   37 1    
    30   12   38 1    
    31   13   15 1    
    32   13   16 1    
    33   13   39 1    
    34   13   40 1    
    35   14   15 1    
    36   14   41 1    
    37   15   16 1    
    38   15   42 1    
    39   16   20 1    
    40   16   43 1    
    41   17   22 1    
    42   17   44 1    
    43   17   45 1    
    44   17   46 1    
    45   18   23 1    
    46   18   47 1    
    47   18   48 1    
    48   18   49 1    
    49   19   24 1    
    50   19   25 1    
    51   19   26 1    
    52   19   50 1    
    53   20   51 1    
@<TRIPOS>SUBSTRUCTURE
     1 UNK         1 GROUP             0       ****    0 ROOT    
@<TRIPOS>MOLECULE
ZINC80489602_96
51   53    1
SMALL
USER_CHARGES


@<TRIPOS>ATOM
      1 C1        -15.8579  -13.4759   38.6092 C.ar      1 UNK        -0.1150 
      2 C2        -14.3320  -12.0834   39.8911 C.ar      1 UNK        -0.1150 
      3 C3        -14.8157  -13.3614   39.5529 C.ar      1 UNK        -0.1150 
      4 C4        -16.4048  -12.3233   37.9961 C.ar      1 UNK         0.0850 
      5 C5        -14.8407  -10.9206   39.2832 C.ar      1 UNK         0.0850 
      6 C6        -15.9046  -11.0425   38.3446 C.ar      1 UNK         0.1996 
      7 C7        -14.2463  -14.5734   40.2283 C.2       1 UNK         0.6150 
      8 C8        -14.6754  -19.2540   40.4071 C.3       1 UNK        -0.1200 
      9 C9        -13.2470  -19.7881   40.2288 C.3       1 UNK        -0.1200 
     10 C10       -11.2673  -19.8682   36.8587 C.3       1 UNK        -0.1200 
     11 C11       -11.3261  -21.0779   37.7674 C.3       1 UNK        -0.1200 
     12 C12       -14.6723  -17.7432   40.7089 C.3       1 UNK        -0.1200 
     13 C13       -13.1268  -17.7449   38.6694 C.3       1 UNK        -0.1200 
     14 C14       -12.3930  -20.0141   37.8530 C.3       1 UNK        -0.0600 
     15 C15       -12.4987  -19.1011   39.0618 C.3       1 UNK        -0.0600 
     16 C16       -13.6166  -16.9516   39.8952 C.3       1 UNK         0.1400 
     17 C17       -17.9233  -13.6391   36.6630 C.3       1 UNK         0.1100 
     18 C18       -14.2991   -8.6074   38.8361 C.3       1 UNK         0.1100 
     19 C19       -17.7532   -9.6409   38.0913 C.3       1 UNK         0.6167 
     20 N20       -14.1517  -15.6666   39.4602 N.am      1 UNK        -0.5000 
     21 O21       -13.8542  -14.5279   41.3911 O.2       1 UNK        -0.5000 
     22 O22       -17.4240  -12.3726   37.0666 O.3       1 UNK        -0.2850 
     23 O23       -14.2528   -9.7404   39.6911 O.3       1 UNK        -0.2850 
     24 O24       -16.4665   -9.9326   37.7635 O.3       1 UNK        -0.3811 
     25 F25       -17.8003   -8.4876   38.8007 F         1 UNK        -0.2326 
     26 F26       -18.4913   -9.4659   36.9684 F         1 UNK        -0.2326 
     27 H27       -16.2419  -14.4576   38.3807 H         1 UNK         0.1150 
     28 H28       -13.5425  -11.9906   40.6244 H         1 UNK         0.1150 
     29 H29       -15.2485  -19.4505   39.5000 H         1 UNK         0.0600 
     30 H30       -15.1841  -19.7902   41.2092 H         1 UNK         0.0600 
     31 H31       -12.6971  -19.6178   41.1560 H         1 UNK         0.0600 
     32 H32       -13.2625  -20.8709   40.0947 H         1 UNK         0.0600 
     33 H33       -10.4986  -19.1252   37.0630 H         1 UNK         0.0600 
     34 H34       -11.5030  -20.0167   35.8067 H         1 UNK         0.0600 
     35 H35       -11.6014  -22.0312   37.3204 H         1 UNK         0.0600 
     36 H36       -10.5988  -21.1357   38.5750 H         1 UNK         0.0600 
     37 H37       -15.6768  -17.3572   40.5294 H         1 UNK         0.0600 
     38 H38       -14.4829  -17.5807   41.7714 H         1 UNK         0.0600 
     39 H39       -12.3968  -17.1620   38.1056 H         1 UNK         0.0600 
     40 H40       -13.9668  -17.9132   37.9935 H         1 UNK         0.0600 
     41 H41       -13.3595  -20.2881   37.4328 H         1 UNK         0.0600 
     42 H42       -11.4827  -18.9058   39.4097 H         1 UNK         0.0600 
     43 H43       -12.7491  -16.7718   40.5351 H         1 UNK         0.0600 
     44 H44       -18.6966  -13.4947   35.9087 H         1 UNK         0.0300 
     45 H45       -18.3752  -14.1748   37.4989 H         1 UNK         0.0300 
     46 H46       -17.1409  -14.2543   36.2166 H         1 UNK         0.0300 
     47 H47       -15.2492   -8.0820   38.9243 H         1 UNK         0.0300 
     48 H48       -14.1221   -8.8712   37.7925 H         1 UNK         0.0300 
     49 H49       -13.5177   -7.9078   39.1324 H         1 UNK         0.0300 
     50 H50       -18.2188  -10.4244   38.6903 H         1 UNK         0.0300 
     51 H51       -14.4413  -15.5803   38.5003 H         1 UNK         0.3000 
@<TRIPOS>BOND
     1    1    3 ar   
     2    1    4 ar   
     3    1   27 1    
     4    2    3 ar   
     5    2    5 ar   
     6    2   28 1    
     7    3    7 1    
     8    4    6 ar   
     9    4   22 1    
    10    5    6 ar   
    11    5   23 1    
    12    6   24 1    
    13    7   20 am   BACKBONE|DICT|INTERRES
    14    7   21 2    
    15    8    9 1    
    16    8   12 1    
    17    8   29 1    
    18    8   30 1    
    19    9   15 1    
    20    9   31 1    
    21    9   32 1    
    22   10   11 1    
    23   10   14 1    
    24   10   33 1    
    25   10   34 1    
    26   11   14 1    
    27   11   35 1    
    28   11   36 1    
    29   12   16 1    
    30   12   37 1    
    31   12   38 1    
    32   13   15 1    
    33   13   16 1    
    34   13   39 1    
    35   13   40 1    
    36   14   15 1    
    37   14   41 1    
    38   15   42 1    
    39   16   20 1    
    40   16   43 1    
    41   17   22 1    
    42   17   44 1    
    43   17   45 1    
    44   17   46 1    
    45   18   23 1    
    46   18   47 1    
    47   18   48 1    
    48   18   49 1    
    49   19   24 1    
    50   19   25 1    
    51   19   26 1    
    52   19   50 1    
    53   20   51 1    
@<TRIPOS>SUBSTRUCTURE
     1 UNK         1 GROUP             0       ****    0 ROOT    
@<TRIPOS>MOLECULE
ZINC80947400_91
40   42    1
SMALL
USER_CHARGES


@<TRIPOS>ATOM
      1 C1         -5.4713  -13.5271   36.8514 C.ar      1 UNK        -0.1150 
      2 C2         -5.7695  -13.0535   35.5610 C.ar      1 UNK        -0.1150 
      3 C3         -5.8201  -12.7608   37.9802 C.ar      1 UNK        -0.1150 
      4 C4         -6.4170  -11.8142   35.4044 C.ar      1 UNK        -0.1150 
      5 C5         -7.0628  -11.0855   40.3164 C.2       1 UNK        -0.1540 
      6 C6         -7.3293   -9.8757   41.0163 C.2       1 UNK        -0.1540 
      7 C7         -6.4680  -11.5123   37.8353 C.ar      1 UNK        -0.4134 
      8 C8         -6.7653  -11.0470   36.5321 C.ar      1 UNK         0.2200 
      9 C9         -6.8125  -10.7330   39.0195 C.2       1 UNK         0.5364 
     10 C10        -7.2329   -8.8637   40.1004 C.2       1 UNK         0.0453 
     11 C11        -7.3777   -7.3994   40.2884 C.2       1 UNK         0.5777 
     12 C12        -7.7995   -5.1481   39.3997 C.3       1 UNK        -0.0500 
     13 C13        -8.3120   -7.1274   37.9817 C.3       1 UNK        -0.0500 
     14 C14        -9.2467   -4.6724   39.6285 C.3       1 UNK         0.1075 
     15 C15        -9.2095   -6.1247   37.2225 C.3       1 UNK         0.1075 
     16 C16        -9.3367   -3.1437   39.6853 C.3       1 UNK        -0.1800 
     17 C17        -9.9584   -6.7986   36.0673 C.3       1 UNK        -0.1800 
     18 N18        -7.7576   -6.6110   39.2499 N.am      1 UNK        -0.1400 
     19 O19        -7.1521   -6.9423   41.4094 O.2       1 UNK        -0.5000 
     20 O20        -6.8848   -9.3809   38.8878 O.3       1 UNK        -0.1900 
     21 F21        -7.4040   -9.8673   36.3461 F         1 UNK        -0.2200 
     22 S22       -10.3819   -5.3234   38.3577 S.3       1 UNK        -0.3350 
     23 H23        -4.9728  -14.4780   36.9753 H         1 UNK         0.1150 
     24 H24        -5.5042  -13.6387   34.6931 H         1 UNK         0.1150 
     25 H25        -5.5766  -13.1387   38.9629 H         1 UNK         0.1150 
     26 H26        -6.6531  -11.4473   34.4167 H         1 UNK         0.1150 
     27 H27        -7.0557  -12.0913   40.7078 H         1 UNK         0.1260 
     28 H28        -7.5637   -9.7469   42.0632 H         1 UNK         0.1260 
     29 H29        -7.3615   -4.6749   38.5209 H         1 UNK         0.0600 
     30 H30        -7.1716   -4.8068   40.2250 H         1 UNK         0.0600 
     31 H31        -8.9130   -8.0153   38.1857 H         1 UNK         0.0600 
     32 H32        -7.4921   -7.4409   37.3342 H         1 UNK         0.0600 
     33 H33        -9.5918   -5.0670   40.5857 H         1 UNK         0.0600 
     34 H34        -8.5894   -5.3403   36.7872 H         1 UNK         0.0600 
     35 H35       -10.3587   -2.8213   39.8860 H         1 UNK         0.0600 
     36 H36        -9.0259   -2.6929   38.7424 H         1 UNK         0.0600 
     37 H37        -8.7031   -2.7407   40.4757 H         1 UNK         0.0600 
     38 H38       -10.5558   -6.0741   35.5132 H         1 UNK         0.0600 
     39 H39       -10.6324   -7.5749   36.4305 H         1 UNK         0.0600 
     40 H40        -9.2642   -7.2623   35.3655 H         1 UNK         0.0600 
@<TRIPOS>BOND
     1    1    2 ar   
     2    1    3 ar   
     3    1   23 1    
     4    2    4 ar   
     5    2   24 1    
     6    3    7 ar   
     7    3   25 1    
     8    4    8 ar   
     9    4   26 1    
    10    5    6 1    
    11    5    9 2    
    12    5   27 1    
    13    6   10 2    
    14    6   28 1    
    15    7    8 ar   
    16    7    9 1    
    17    8   21 1    
    18    9   20 1    
    19   10   11 1    
    20   10   20 1    
    21   11   18 am   BACKBONE|DICT|INTERRES
    22   11   19 2    
    23   12   14 1    
    24   12   18 1    
    25   12   29 1    
    26   12   30 1    
    27   13   15 1    
    28   13   18 1    
    29   13   31 1    
    30   13   32 1    
    31   14   16 1    
    32   14   22 1    
    33   14   33 1    
    34   15   17 1    
    35   15   22 1    
    36   15   34 1    
    37   16   35 1    
    38   16   36 1    
    39   16   37 1    
    40   17   38 1    
    41   17   39 1    
    42   17   40 1    
@<TRIPOS>SUBSTRUCTURE
     1 UNK         1 GROUP             0       ****    0 ROOT    
@<TRIPOS>MOLECULE
ZINC81180213_14
53   54    1
SMALL
USER_CHARGES


@<TRIPOS>ATOM
      1 C1        -15.9312  -14.3692   39.1817 C.ar      1 UNK        -0.1150 
      2 C2        -14.3190  -12.6966   39.8987 C.ar      1 UNK        -0.1150 
      3 C3        -14.8042  -14.0155   39.9496 C.ar      1 UNK        -0.1150 
      4 C4        -16.5363  -13.4298   38.3135 C.ar      1 UNK         0.0850 
      5 C5        -14.9079  -11.7343   39.0579 C.ar      1 UNK         0.0850 
      6 C6        -16.0050  -12.1165   38.2319 C.ar      1 UNK         0.0850 
      7 C7        -14.1582  -15.0123   40.8669 C.2       1 UNK         0.6150 
      8 C8        -13.9774  -18.5756   40.8250 C.3       1 UNK        -0.1200 
      9 C9        -13.7745  -18.9050   39.3400 C.3       1 UNK        -0.1200 
     10 C10       -13.2500  -17.2776   41.2127 C.3       1 UNK        -0.0500 
     11 C11       -14.1554  -17.7050   38.4551 C.3       1 UNK        -0.0600 
     12 C12       -13.4160  -16.4133   38.8965 C.3       1 UNK         0.0100 
     13 C13       -13.9952  -18.0238   36.9602 C.3       1 UNK        -0.1800 
     14 C14        -9.7303  -15.0307   38.5420 C.3       1 UNK        -0.1800 
     15 C15       -18.2170  -15.0175   37.6346 C.3       1 UNK         0.1100 
     16 C16       -15.0692   -9.3511   38.6910 C.3       1 UNK         0.1100 
     17 C17       -16.3055  -11.5090   35.9864 C.3       1 UNK         0.1100 
     18 C18       -11.9023  -16.3751   38.5605 C.3       1 UNK        -0.1200 
     19 C19       -11.1985  -15.0718   38.9804 C.3       1 UNK        -0.1200 
     20 N20       -13.6707  -16.1669   40.3377 N.am      1 UNK        -0.1400 
     21 O21       -14.1114  -14.7510   42.0683 O.2       1 UNK        -0.5000 
     22 O22       -17.6364  -13.7258   37.5337 O.3       1 UNK        -0.2850 
     23 O23       -14.3203  -10.4858   39.0996 O.3       1 UNK        -0.2850 
     24 O24       -16.5677  -11.2240   37.3528 O.3       1 UNK        -0.2850 
     25 H25       -16.3093  -15.3757   39.2732 H         1 UNK         0.1150 
     26 H26       -13.4791  -12.4137   40.5178 H         1 UNK         0.1150 
     27 H27       -15.0429  -18.4709   41.0352 H         1 UNK         0.0600 
     28 H28       -13.6227  -19.4014   41.4430 H         1 UNK         0.0600 
     29 H29       -12.7345  -19.1838   39.1658 H         1 UNK         0.0600 
     30 H30       -14.3728  -19.7772   39.0728 H         1 UNK         0.0600 
     31 H31       -13.4471  -17.0765   42.2672 H         1 UNK         0.0600 
     32 H32       -12.1704  -17.4084   41.1436 H         1 UNK         0.0600 
     33 H33       -15.2203  -17.5244   38.6123 H         1 UNK         0.0600 
     34 H34       -13.8384  -15.6168   38.2873 H         1 UNK         0.0600 
     35 H35       -12.9725  -18.3079   36.7121 H         1 UNK         0.0600 
     36 H36       -14.2655  -17.1666   36.3424 H         1 UNK         0.0600 
     37 H37       -14.6402  -18.8528   36.6681 H         1 UNK         0.0600 
     38 H38        -9.1621  -15.8483   38.9870 H         1 UNK         0.0600 
     39 H39        -9.2601  -14.0959   38.8486 H         1 UNK         0.0600 
     40 H40        -9.6376  -15.1074   37.4582 H         1 UNK         0.0600 
     41 H41       -19.0807  -15.0745   36.9722 H         1 UNK         0.0300 
     42 H42       -18.5665  -15.2196   38.6480 H         1 UNK         0.0300 
     43 H43       -17.5162  -15.7957   37.3289 H         1 UNK         0.0300 
     44 H44       -15.0849   -9.2576   37.6051 H         1 UNK         0.0300 
     45 H45       -14.5956   -8.4520   39.0846 H         1 UNK         0.0300 
     46 H46       -16.0909   -9.3753   39.0731 H         1 UNK         0.0300 
     47 H47       -16.5328  -10.6285   35.3857 H         1 UNK         0.0300 
     48 H48       -16.9215  -12.3272   35.6142 H         1 UNK         0.0300 
     49 H49       -15.2560  -11.7597   35.8236 H         1 UNK         0.0300 
     50 H50       -11.3877  -17.2246   39.0088 H         1 UNK         0.0600 
     51 H51       -11.7745  -16.4915   37.4843 H         1 UNK         0.0600 
     52 H52       -11.7239  -14.2163   38.5528 H         1 UNK         0.0600 
     53 H53       -11.2425  -14.9509   40.0633 H         1 UNK         0.0600 
@<TRIPOS>BOND
     1    1    3 ar   
     2    1    4 ar   
     3    1   25 1    
     4    2    3 ar   
     5    2    5 ar   
     6    2   26 1    
     7    3    7 1    
     8    4    6 ar   
     9    4   22 1    
    10    5    6 ar   
    11    5   23 1    
    12    6   24 1    
    13    7   20 am   BACKBONE|DICT|INTERRES
    14    7   21 2    
    15    8    9 1    
    16    8   10 1    
    17    8   27 1    
    18    8   28 1    
    19    9   11 1    
    20    9   29 1    
    21    9   30 1    
    22   10   20 1    
    23   10   31 1    
    24   10   32 1    
    25   11   12 1    
    26   11   13 1    
    27   11   33 1    
    28   12   18 1    
    29   12   20 1    
    30   12   34 1    
    31   13   35 1    
    32   13   36 1    
    33   13   37 1    
    34   14   19 1    
    35   14   38 1    
    36   14   39 1    
    37   14   40 1    
    38   15   22 1    
    39   15   41 1    
    40   15   42 1    
    41   15   43 1    
    42   16   23 1    
    43   16   44 1    
    44   16   45 1    
    45   16   46 1    
    46   17   24 1    
    47   17   47 1    
    48   17   48 1    
    49   17   49 1    
    50   18   19 1    
    51   18   50 1    
    52   18   51 1    
    53   19   52 1    
    54   19   53 1    
@<TRIPOS>SUBSTRUCTURE
     1 UNK         1 GROUP             0       ****    0 ROOT    
@<TRIPOS>MOLECULE
ZINC81258670_83
48   51    1
SMALL
USER_CHARGES


@<TRIPOS>ATOM
      1 C1         -6.0653  -10.2997   43.5332 C.ar      1 UNK        -0.1150 
      2 C2         -6.6470   -9.0327   43.6997 C.ar      1 UNK        -0.1150 
      3 C3         -5.9930   -4.0891   39.0079 C.ar      1 UNK        -0.1150 
      4 C4         -5.4891  -10.6433   42.2987 C.ar      1 UNK        -0.1150 
      5 C5         -6.6423   -8.1098   42.6379 C.ar      1 UNK        -0.1150 
      6 C6         -6.4833   -3.2879   37.9633 C.ar      1 UNK        -0.1150 
      7 C7         -3.7230  -10.6091   35.7839 C.ar      1 UNK        -0.3200 
      8 C8         -7.8165   -5.6512   38.6366 C.ar      1 UNK        -0.1150 
      9 C9         -3.5980   -9.2066   35.5921 C.ar      1 UNK         0.2660 
     10 C10        -4.1182  -10.7282   37.0858 C.ar      1 UNK         0.0360 
     11 C11        -6.6443   -5.2916   39.3371 C.ar      1 UNK        -0.1150 
     12 C12        -5.4801   -9.7226   41.2295 C.ar      1 UNK        -0.1150 
     13 C13        -6.0430   -8.4256   41.3888 C.ar      1 UNK        -0.0383 
     14 C14        -7.6295   -3.6547   37.2307 C.ar      1 UNK         0.0850 
     15 C15        -8.3245   -4.8538   37.5769 C.ar      1 UNK         0.0850 
     16 C16        -6.1260   -6.1391   40.4703 C.2       1 UNK         0.6150 
     17 C17        -4.8763  -10.1713   39.9122 C.3       1 UNK        -0.0050 
     18 C18        -5.7735   -8.0267   38.9401 C.3       1 UNK        -0.0500 
     19 C19        -4.5881   -9.0079   38.9541 C.3       1 UNK         0.0625 
     20 C20        -8.9283   -3.1154   35.2476 C.3       1 UNK         0.1100 
     21 C21       -10.1357   -6.4169   37.2175 C.3       1 UNK         0.1100 
     22 N22        -3.8948   -8.5237   36.6844 N.2       1 UNK        -0.5310 
     23 N23        -4.2305   -9.4514   37.6076 N.pl3     1 UNK         0.0695 
     24 N24        -6.0423   -7.4893   40.2886 N.am      1 UNK        -0.0317 
     25 O25        -5.7551   -5.5662   41.4961 O.2       1 UNK        -0.5000 
     26 O26        -7.9683   -2.7630   36.2306 O.3       1 UNK        -0.2850 
     27 O27        -9.4736   -5.2023   36.8948 O.3       1 UNK        -0.2850 
     28 H28        -6.0681  -11.0088   44.3485 H         1 UNK         0.1150 
     29 H29        -7.0995   -8.7649   44.6434 H         1 UNK         0.1150 
     30 H30        -5.1125   -3.7815   39.5553 H         1 UNK         0.1150 
     31 H31        -5.0558  -11.6253   42.1748 H         1 UNK         0.1150 
     32 H32        -7.1123   -7.1524   42.8100 H         1 UNK         0.1150 
     33 H33        -5.9689   -2.3720   37.7122 H         1 UNK         0.1150 
     34 H34        -3.5416  -11.4024   35.0745 H         1 UNK         0.1500 
     35 H35        -8.3182   -6.5561   38.9407 H         1 UNK         0.1150 
     36 H36        -3.2999   -8.6685   34.7034 H         1 UNK         0.0720 
     37 H37        -4.3241  -11.6139   37.6681 H         1 UNK         0.1350 
     38 H38        -3.9618  -10.7353   40.1009 H         1 UNK         0.0600 
     39 H39        -5.5940  -10.8585   39.4634 H         1 UNK         0.0600 
     40 H40        -5.5441   -7.2417   38.2186 H         1 UNK         0.0600 
     41 H41        -6.6705   -8.5261   38.5738 H         1 UNK         0.0600 
     42 H42        -3.7221   -8.4674   39.3412 H         1 UNK         0.0600 
     43 H43        -8.9116   -2.3694   34.4535 H         1 UNK         0.0300 
     44 H44        -9.9368   -3.1232   35.6619 H         1 UNK         0.0300 
     45 H45        -8.7052   -4.0803   34.7904 H         1 UNK         0.0300 
     46 H46       -10.9973   -6.5394   36.5614 H         1 UNK         0.0300 
     47 H47       -10.5043   -6.4112   38.2441 H         1 UNK         0.0300 
     48 H48        -9.4843   -7.2791   37.0674 H         1 UNK         0.0300 
@<TRIPOS>BOND
     1    1    2 ar   
     2    1    4 ar   
     3    1   28 1    
     4    2    5 ar   
     5    2   29 1    
     6    3    6 ar   
     7    3   11 ar   
     8    3   30 1    
     9    4   12 ar   
    10    4   31 1    
    11    5   13 ar   
    12    5   32 1    
    13    6   14 ar   
    14    6   33 1    
    15    7    9 ar   
    16    7   10 ar   
    17    7   34 1    
    18    8   11 ar   
    19    8   15 ar   
    20    8   35 1    
    21    9   22 ar   
    22    9   36 1    
    23   10   23 ar   
    24   10   37 1    
    25   11   16 1    
    26   12   13 ar   
    27   12   17 1    
    28   13   24 1    
    29   14   15 ar   
    30   14   26 1    
    31   15   27 1    
    32   16   24 am   BACKBONE|DICT|INTERRES
    33   16   25 2    
    34   17   19 1    
    35   17   38 1    
    36   17   39 1    
    37   18   19 1    
    38   18   24 1    
    39   18   40 1    
    40   18   41 1    
    41   19   23 1    
    42   19   42 1    
    43   20   26 1    
    44   20   43 1    
    45   20   44 1    
    46   20   45 1    
    47   21   27 1    
    48   21   46 1    
    49   21   47 1    
    50   21   48 1    
    51   22   23 ar   
@<TRIPOS>SUBSTRUCTURE
     1 UNK         1 GROUP             0       ****    0 ROOT    
@<TRIPOS>MOLECULE
ZINC81429407_1
45   47    1
SMALL
USER_CHARGES


@<TRIPOS>ATOM
      1 C1         -5.6038  -11.9538   37.4637 C.ar      1 UNK        -0.1150 
      2 C2         -5.1500   -9.7706   36.4880 C.ar      1 UNK        -0.1150 
      3 C3         -5.1905  -12.5731   36.2676 C.ar      1 UNK        -0.1150 
      4 C4         -4.7363  -10.3880   35.2921 C.ar      1 UNK        -0.1150 
      5 C5         -6.7400   -9.2568   41.0871 C.2       1 UNK        -0.3376 
      6 C6         -5.5863  -10.5450   37.5866 C.ar      1 UNK         0.0000 
      7 C7         -4.7533  -11.7920   35.1792 C.ar      1 UNK        -0.1150 
      8 C8         -6.6169   -8.1828   40.2400 C.2       1 UNK         0.1693 
      9 C9         -6.0138   -9.8778   38.8193 C.2       1 UNK         0.3009 
     10 C10        -6.8372   -6.7679   40.6909 C.2       1 UNK         0.6150 
     11 C11        -8.1601   -3.8316   38.8824 C.3       1 UNK        -0.1200 
     12 C12        -7.6505   -4.4956   40.1637 C.3       1 UNK        -0.0500 
     13 C13        -7.9165   -6.1800   38.4786 C.3       1 UNK        -0.0500 
     14 C14        -8.7884   -4.9799   38.1011 C.3       1 UNK        -0.0600 
     15 C15        -4.3104  -12.4552   33.8915 C.3       1 UNK        -0.0650 
     16 C16       -10.9361   -2.1993   34.8611 C.3       1 UNK        -0.1800 
     17 C17        -8.8967   -4.7401   36.5892 C.3       1 UNK         0.1400 
     18 C18        -9.9410   -3.3528   34.9897 C.3       1 UNK         0.1400 
     19 N19        -6.1672   -8.5574   38.9648 N.2       1 UNK        -0.4803 
     20 N20        -7.4036   -5.8970   39.8212 N.am      1 UNK        -0.1400 
     21 O21        -6.5600   -6.4376   41.8452 O.2       1 UNK        -0.5000 
     22 O22        -9.7895   -3.6623   36.3640 O.3       1 UNK        -0.4000 
     23 S23        -6.3740  -10.7672   40.3006 S.3       1 UNK         0.0010 
     24 H24        -5.9368  -12.5767   38.2799 H         1 UNK         0.1150 
     25 H25        -5.1296   -8.6927   36.5610 H         1 UNK         0.1150 
     26 H26        -5.2123  -13.6507   36.1910 H         1 UNK         0.1150 
     27 H27        -4.4062   -9.7775   34.4640 H         1 UNK         0.1150 
     28 H28        -7.0211   -9.2304   42.1297 H         1 UNK         0.2317 
     29 H29        -8.8645   -3.0212   39.0746 H         1 UNK         0.0600 
     30 H30        -7.3201   -3.4144   38.3252 H         1 UNK         0.0600 
     31 H31        -6.7500   -4.0067   40.5396 H         1 UNK         0.0600 
     32 H32        -8.4075   -4.4508   40.9485 H         1 UNK         0.0600 
     33 H33        -8.4910   -7.1070   38.4411 H         1 UNK         0.0600 
     34 H34        -7.0722   -6.2755   37.7940 H         1 UNK         0.0600 
     35 H35        -9.7898   -5.1534   38.4994 H         1 UNK         0.0600 
     36 H36        -5.1417  -12.5026   33.1877 H         1 UNK         0.0600 
     37 H37        -3.4985  -11.8944   33.4273 H         1 UNK         0.0600 
     38 H38        -3.9562  -13.4701   34.0744 H         1 UNK         0.0600 
     39 H39       -11.9063   -2.4741   35.2752 H         1 UNK         0.0600 
     40 H40       -10.5821   -1.3177   35.3954 H         1 UNK         0.0600 
     41 H41       -11.0821   -1.9235   33.8168 H         1 UNK         0.0600 
     42 H42        -9.2699   -5.6392   36.0962 H         1 UNK         0.0300 
     43 H43        -7.9153   -4.5174   36.1667 H         1 UNK         0.0300 
     44 H44        -8.9802   -3.0674   34.5584 H         1 UNK         0.0300 
     45 H45       -10.3061   -4.2230   34.4417 H         1 UNK         0.0300 
@<TRIPOS>BOND
     1    1    3 ar   
     2    1    6 ar   
     3    1   24 1    
     4    2    4 ar   
     5    2    6 ar   
     6    2   25 1    
     7    3    7 ar   
     8    3   26 1    
     9    4    7 ar   
    10    4   27 1    
    11    5    8 2    
    12    5   23 1    
    13    5   28 1    
    14    6    9 1    
    15    7   15 1    
    16    8   10 1    
    17    8   19 1    
    18    9   19 2    
    19    9   23 1    
    20   10   20 am   BACKBONE|DICT|INTERRES
    21   10   21 2    
    22   11   12 1    
    23   11   14 1    
    24   11   29 1    
    25   11   30 1    
    26   12   20 1    
    27   12   31 1    
    28   12   32 1    
    29   13   14 1    
    30   13   20 1    
    31   13   33 1    
    32   13   34 1    
    33   14   17 1    
    34   14   35 1    
    35   15   36 1    
    36   15   37 1    
    37   15   38 1    
    38   16   18 1    
    39   16   39 1    
    40   16   40 1    
    41   16   41 1    
    42   17   22 1    
    43   17   42 1    
    44   17   43 1    
    45   18   22 1    
    46   18   44 1    
    47   18   45 1    
@<TRIPOS>SUBSTRUCTURE
     1 UNK         1 GROUP             0       ****    0 ROOT    
@<TRIPOS>MOLECULE
ZINC81430461_4
45   48    1
SMALL
USER_CHARGES


@<TRIPOS>ATOM
      1 C1         -5.4903   -9.7896   36.3289 C.ar      1 UNK        -0.1150 
      2 C2         -5.1111  -10.3756   35.0996 C.ar      1 UNK        -0.1150 
      3 C3         -5.4579  -11.9820   37.4320 C.ar      1 UNK        -0.1150 
      4 C4         -6.7350   -9.3477   41.0466 C.2       1 UNK        -0.3376 
      5 C5         -5.6669  -10.5796   37.4992 C.ar      1 UNK         0.0000 
      6 C6         -4.9138  -11.7638   35.0723 C.ar      1 UNK         0.0850 
      7 C7         -5.0816  -12.5393   36.1997 C.ar      1 UNK         0.0850 
      8 C8         -6.6514   -8.2618   40.2095 C.2       1 UNK         0.1693 
      9 C9         -6.0629   -9.9322   38.7529 C.2       1 UNK         0.3009 
     10 C10        -6.8745   -6.8555   40.6874 C.2       1 UNK         0.6150 
     11 C11        -8.2081   -3.8823   38.9498 C.3       1 UNK        -0.1200 
     12 C12        -7.6928   -4.5743   40.2135 C.3       1 UNK        -0.0500 
     13 C13        -7.9773   -6.2234   38.4968 C.3       1 UNK        -0.0500 
     14 C14        -4.4923  -13.8585   34.5351 C.3       1 UNK         0.2000 
     15 C15        -8.8463   -5.0118   38.1495 C.3       1 UNK        -0.0600 
     16 C16       -10.9781   -2.1309   34.9879 C.3       1 UNK        -0.1800 
     17 C17        -8.9641   -4.7398   36.6436 C.3       1 UNK         0.1400 
     18 C18       -10.0021   -3.3041   35.0818 C.3       1 UNK         0.1400 
     19 N19        -6.2363   -8.6163   38.9166 N.2       1 UNK        -0.4803 
     20 N20        -7.4519   -5.9692   39.8407 N.am      1 UNK        -0.1400 
     21 O21        -6.5859   -6.5452   41.8445 O.2       1 UNK        -0.5000 
     22 O22        -4.5514  -12.5501   34.0278 O.3       1 UNK        -0.2850 
     23 O23        -4.8296  -13.8385   35.8987 O.3       1 UNK        -0.2850 
     24 O24        -9.8449   -3.6464   36.4480 O.3       1 UNK        -0.4000 
     25 S25        -6.3658  -10.8432   40.2339 S.3       1 UNK         0.0010 
     26 H26        -5.6464   -8.7212   36.3727 H         1 UNK         0.1150 
     27 H27        -4.9758   -9.7781   34.2105 H         1 UNK         0.1150 
     28 H28        -5.5775  -12.6240   38.2909 H         1 UNK         0.1150 
     29 H29        -6.9863   -9.3377   42.0973 H         1 UNK         0.2317 
     30 H30        -8.9079   -3.0734   39.1639 H         1 UNK         0.0600 
     31 H31        -7.3700   -3.4562   38.3961 H         1 UNK         0.0600 
     32 H32        -6.7886   -4.0953   40.5933 H         1 UNK         0.0600 
     33 H33        -8.4442   -4.5432   41.0043 H         1 UNK         0.0600 
     34 H34        -8.5563   -7.1468   38.4465 H         1 UNK         0.0600 
     35 H35        -7.1390   -6.3087   37.8037 H         1 UNK         0.0600 
     36 H36        -5.1940  -14.4936   33.9930 H         1 UNK         0.1000 
     37 H37        -3.4822  -14.2516   34.4136 H         1 UNK         0.1000 
     38 H38        -9.8460   -5.1884   38.5509 H         1 UNK         0.0600 
     39 H39       -11.9510   -2.3995   35.3998 H         1 UNK         0.0600 
     40 H40       -10.6056   -1.2698   35.5430 H         1 UNK         0.0600 
     41 H41       -11.1244   -1.8261   33.9517 H         1 UNK         0.0600 
     42 H42        -9.3524   -5.6241   36.1358 H         1 UNK         0.0300 
     43 H43        -7.9834   -4.5202   36.2180 H         1 UNK         0.0300 
     44 H44        -9.0402   -3.0257   34.6483 H         1 UNK         0.0300 
     45 H45       -10.3868   -4.1556   34.5182 H         1 UNK         0.0300 
@<TRIPOS>BOND
     1    1    2 ar   
     2    1    5 ar   
     3    1   26 1    
     4    2    6 ar   
     5    2   27 1    
     6    3    5 ar   
     7    3    7 ar   
     8    3   28 1    
     9    4    8 2    
    10    4   25 1    
    11    4   29 1    
    12    5    9 1    
    13    6    7 ar   
    14    6   22 1    
    15    7   23 1    
    16    8   10 1    
    17    8   19 1    
    18    9   19 2    
    19    9   25 1    
    20   10   20 am   BACKBONE|DICT|INTERRES
    21   10   21 2    
    22   11   12 1    
    23   11   15 1    
    24   11   30 1    
    25   11   31 1    
    26   12   20 1    
    27   12   32 1    
    28   12   33 1    
    29   13   15 1    
    30   13   20 1    
    31   13   34 1    
    32   13   35 1    
    33   14   22 1    
    34   14   23 1    
    35   14   36 1    
    36   14   37 1    
    37   15   17 1    
    38   15   38 1    
    39   16   18 1    
    40   16   39 1    
    41   16   40 1    
    42   16   41 1    
    43   17   24 1    
    44   17   42 1    
    45   17   43 1    
    46   18   24 1    
    47   18   44 1    
    48   18   45 1    
@<TRIPOS>SUBSTRUCTURE
     1 UNK         1 GROUP             0       ****    0 ROOT    
@<TRIPOS>MOLECULE
ZINC81638761_259
51   53    1
SMALL
USER_CHARGES


@<TRIPOS>ATOM
      1 C1         -6.7054   -3.8223   39.7227 C.ar      1 UNK        -0.1150 
      2 C2         -7.3078   -2.8699   38.8810 C.ar      1 UNK        -0.1150 
      3 C3         -7.9367   -5.5940   38.5921 C.ar      1 UNK        -0.1150 
      4 C4         -4.1555  -10.7789   37.2239 C.ar      1 UNK        -0.1150 
      5 C5         -4.3175   -8.6911   35.9912 C.ar      1 UNK        -0.1150 
      6 C6         -4.1210  -10.7982   34.7892 C.ar      1 UNK        -0.1150 
      7 C7         -6.9993   -5.1928   39.5707 C.ar      1 UNK        -0.1150 
      8 C8         -4.2862   -9.3728   37.2256 C.ar      1 UNK        -0.1150 
      9 C9         -8.2193   -3.2786   37.8865 C.ar      1 UNK        -0.1150 
     10 C10        -8.5433   -4.6448   37.7325 C.ar      1 UNK         0.0850 
     11 C11        -4.0771  -11.5017   36.0185 C.ar      1 UNK         0.0850 
     12 C12        -4.2390   -9.3863   34.7700 C.ar      1 UNK         0.0850 
     13 C13        -6.3661   -6.1916   40.4993 C.2       1 UNK         0.6150 
     14 C14        -4.6337   -9.3726   39.8041 C.3       1 UNK        -0.1200 
     15 C15        -5.1488   -8.3191   40.7864 C.3       1 UNK        -0.0500 
     16 C16        -5.4818   -7.5245   38.5484 C.3       1 UNK        -0.0500 
     17 C17        -4.3670   -8.5769   38.5264 C.3       1 UNK         0.0550 
     18 C18        -8.8653   -2.2436   36.9860 C.3       1 UNK        -0.0650 
     19 C19        -9.7454   -6.3451   36.5307 C.3       1 UNK         0.1100 
     20 C20        -3.8798  -13.6394   34.9376 C.3       1 UNK         0.1100 
     21 C21        -4.2024   -9.2850   32.3694 C.3       1 UNK         0.1100 
     22 N22        -5.7600   -7.2757   39.9643 N.am      1 UNK        -0.1400 
     23 O23        -6.3906   -5.9866   41.7123 O.2       1 UNK        -0.5000 
     24 O24        -9.4476   -4.9733   36.7444 O.3       1 UNK        -0.2850 
     25 O25        -3.9604  -12.8708   36.1285 O.3       1 UNK        -0.2850 
     26 O26        -4.2834   -8.6233   33.6230 O.3       1 UNK        -0.2850 
     27 H27        -6.0155   -3.5014   40.4913 H         1 UNK         0.1150 
     28 H28        -7.0698   -1.8236   39.0070 H         1 UNK         0.1150 
     29 H29        -8.1888   -6.6402   38.5242 H         1 UNK         0.1150 
     30 H30        -4.1101  -11.3323   38.1497 H         1 UNK         0.1150 
     31 H31        -4.4002   -7.6143   35.9671 H         1 UNK         0.1150 
     32 H32        -4.0601  -11.3410   33.8612 H         1 UNK         0.1150 
     33 H33        -3.7556   -9.9069   40.1688 H         1 UNK         0.0600 
     34 H34        -5.4276  -10.1022   39.6354 H         1 UNK         0.0600 
     35 H35        -5.8619   -8.7410   41.4968 H         1 UNK         0.0600 
     36 H36        -4.3249   -7.8863   41.3567 H         1 UNK         0.0600 
     37 H37        -5.1928   -6.6193   38.0119 H         1 UNK         0.0600 
     38 H38        -6.3806   -7.9281   38.0814 H         1 UNK         0.0600 
     39 H39        -3.4114   -8.0627   38.6459 H         1 UNK         0.0600 
     40 H40        -8.6663   -2.4777   35.9401 H         1 UNK         0.0600 
     41 H41        -9.9453   -2.2404   37.1359 H         1 UNK         0.0600 
     42 H42        -8.4894   -1.2410   37.1890 H         1 UNK         0.0600 
     43 H43       -10.4434   -6.4360   35.6985 H         1 UNK         0.0300 
     44 H44       -10.2183   -6.7910   37.4066 H         1 UNK         0.0300 
     45 H45        -8.8500   -6.9127   36.2729 H         1 UNK         0.0300 
     46 H46        -3.7949  -14.6945   35.1973 H         1 UNK         0.0300 
     47 H47        -3.0002  -13.3729   34.3503 H         1 UNK         0.0300 
     48 H48        -4.7750  -13.5219   34.3254 H         1 UNK         0.0300 
     49 H49        -4.2537   -8.5466   31.5693 H         1 UNK         0.0300 
     50 H50        -5.0327   -9.9786   32.2306 H         1 UNK         0.0300 
     51 H51        -3.2590   -9.8220   32.2626 H         1 UNK         0.0300 
@<TRIPOS>BOND
     1    1    2 ar   
     2    1    7 ar   
     3    1   27 1    
     4    2    9 ar   
     5    2   28 1    
     6    3    7 ar   
     7    3   10 ar   
     8    3   29 1    
     9    4    8 ar   
    10    4   11 ar   
    11    4   30 1    
    12    5    8 ar   
    13    5   12 ar   
    14    5   31 1    
    15    6   11 ar   
    16    6   12 ar   
    17    6   32 1    
    18    7   13 1    
    19    8   17 1    
    20    9   10 ar   
    21    9   18 1    
    22   10   24 1    
    23   11   25 1    
    24   12   26 1    
    25   13   22 am   BACKBONE|DICT|INTERRES
    26   13   23 2    
    27   14   15 1    
    28   14   17 1    
    29   14   33 1    
    30   14   34 1    
    31   15   22 1    
    32   15   35 1    
    33   15   36 1    
    34   16   17 1    
    35   16   22 1    
    36   16   37 1    
    37   16   38 1    
    38   17   39 1    
    39   18   40 1    
    40   18   41 1    
    41   18   42 1    
    42   19   24 1    
    43   19   43 1    
    44   19   44 1    
    45   19   45 1    
    46   20   25 1    
    47   20   46 1    
    48   20   47 1    
    49   20   48 1    
    50   21   26 1    
    51   21   49 1    
    52   21   50 1    
    53   21   51 1    
@<TRIPOS>SUBSTRUCTURE
     1 UNK         1 GROUP             0       ****    0 ROOT    
@<TRIPOS>MOLECULE
ZINC82108134_109
48   50    1
SMALL
USER_CHARGES


@<TRIPOS>ATOM
      1 C1         -2.9966  -10.1655   36.3062 C.ar      1 UNK        -0.1150 
      2 C2         -3.5007   -9.6952   37.5336 C.ar      1 UNK        -0.1150 
      3 C3         -3.8809  -10.5693   35.2886 C.ar      1 UNK        -0.1150 
      4 C4         -5.7762  -10.0335   36.7272 C.ar      1 UNK        -0.1150 
      5 C5         -4.8943   -9.6274   37.7521 C.ar      1 UNK        -0.1150 
      6 C6         -5.2730  -10.5033   35.4964 C.ar      1 UNK        -0.1150 
      7 C7         -7.9198   -6.4234   38.7145 C.ar      1 UNK        -0.1150 
      8 C8         -7.0187   -4.2396   39.2664 C.ar      1 UNK        -0.1717 
      9 C9         -8.5419   -5.8846   37.6538 C.ar      1 UNK        -0.1882 
     10 C10        -7.1000   -5.5594   39.5443 C.ar      1 UNK        -0.0567 
     11 C11        -7.6832   -3.6535   38.1016 C.ar      1 UNK         0.5567 
     12 C12        -6.4440   -6.0678   40.7444 C.2       1 UNK         0.5567 
     13 C13        -5.5292   -9.4097   41.5978 C.3       1 UNK        -0.1200 
     14 C14        -5.0226   -9.9911   40.2665 C.3       1 UNK        -0.1200 
     15 C15        -5.1468   -7.9245   41.7397 C.3       1 UNK        -0.0500 
     16 C16        -5.0638   -7.6404   39.3225 C.3       1 UNK        -0.0500 
     17 C17        -5.4498   -9.1134   39.0727 C.3       1 UNK         0.0550 
     18 C18        -6.2203  -10.9423   34.3992 C.3       1 UNK        -0.0650 
     19 C19        -8.3016   -4.2705   34.8712 C.3       1 UNK        -0.1800 
     20 C20        -9.1368   -4.0523   36.1424 C.3       1 UNK        -0.0500 
     21 N21        -8.4243   -4.5167   37.3402 N.pl3     1 UNK         0.0032 
     22 N22        -5.6607   -7.1692   40.5860 N.am      1 UNK        -0.1400 
     23 O23        -7.5726   -2.4603   37.8215 O.2       1 UNK        -0.5000 
     24 O24        -6.6121   -5.5453   41.8456 O.2       1 UNK        -0.5000 
     25 H25        -1.9296  -10.2167   36.1448 H         1 UNK         0.1150 
     26 H26        -2.8102   -9.3871   38.3048 H         1 UNK         0.1150 
     27 H27        -3.4865  -10.9304   34.3496 H         1 UNK         0.1150 
     28 H28        -6.8441   -9.9854   36.8836 H         1 UNK         0.1150 
     29 H29        -8.0443   -7.4704   38.9499 H         1 UNK         0.1150 
     30 H30        -6.4479   -3.5850   39.9092 H         1 UNK         0.1150 
     31 H31        -9.1712   -6.4546   36.9852 H         1 UNK         0.1150 
     32 H32        -6.6140   -9.5120   41.6530 H         1 UNK         0.0600 
     33 H33        -5.1241   -9.9821   42.4331 H         1 UNK         0.0600 
     34 H34        -3.9352  -10.0621   40.3071 H         1 UNK         0.0600 
     35 H35        -5.3913  -11.0093   40.1357 H         1 UNK         0.0600 
     36 H36        -5.5313   -7.5527   42.6913 H         1 UNK         0.0600 
     37 H37        -4.0631   -7.8112   41.7920 H         1 UNK         0.0600 
     38 H38        -3.9802   -7.5440   39.3998 H         1 UNK         0.0600 
     39 H39        -5.3343   -7.0342   38.4585 H         1 UNK         0.0600 
     40 H40        -6.5367   -9.1685   39.0100 H         1 UNK         0.0600 
     41 H41        -6.2376  -12.0303   34.3322 H         1 UNK         0.0600 
     42 H42        -7.2362  -10.5945   34.5884 H         1 UNK         0.0600 
     43 H43        -5.9014  -10.5433   33.4359 H         1 UNK         0.0600 
     44 H44        -7.3645   -3.7138   34.9176 H         1 UNK         0.0600 
     45 H45        -8.0587   -5.3240   34.7283 H         1 UNK         0.0600 
     46 H46        -8.8433   -3.9313   33.9878 H         1 UNK         0.0600 
     47 H47       -10.0881   -4.5784   36.0537 H         1 UNK         0.0600 
     48 H48        -9.4052   -2.9975   36.2293 H         1 UNK         0.0600 
@<TRIPOS>BOND
     1    1    2 ar   
     2    1    3 ar   
     3    1   25 1    
     4    2    5 ar   
     5    2   26 1    
     6    3    6 ar   
     7    3   27 1    
     8    4    5 ar   
     9    4    6 ar   
    10    4   28 1    
    11    5   17 1    
    12    6   18 1    
    13    7    9 ar   
    14    7   10 ar   
    15    7   29 1    
    16    8   10 ar   
    17    8   11 ar   
    18    8   30 1    
    19    9   21 ar   
    20    9   31 1    
    21   10   12 1    
    22   11   21 ar   
    23   11   23 2    
    24   12   22 am   BACKBONE|DICT|INTERRES
    25   12   24 2    
    26   13   14 1    
    27   13   15 1    
    28   13   32 1    
    29   13   33 1    
    30   14   17 1    
    31   14   34 1    
    32   14   35 1    
    33   15   22 1    
    34   15   36 1    
    35   15   37 1    
    36   16   17 1    
    37   16   22 1    
    38   16   38 1    
    39   16   39 1    
    40   17   40 1    
    41   18   41 1    
    42   18   42 1    
    43   18   43 1    
    44   19   20 1    
    45   19   44 1    
    46   19   45 1    
    47   19   46 1    
    48   20   21 1    
    49   20   47 1    
    50   20   48 1    
@<TRIPOS>SUBSTRUCTURE
     1 UNK         1 GROUP             0       ****    0 ROOT    
@<TRIPOS>MOLECULE
ZINC82126883_274
45   48    1
SMALL
USER_CHARGES


@<TRIPOS>ATOM
      1 C1         -8.7245   -1.9412   37.7490 C.ar      1 UNK        -0.1150 
      2 C2         -8.5936   -2.5781   36.5008 C.ar      1 UNK        -0.1150 
      3 C3         -5.4147   -9.8288   35.1927 C.ar      1 UNK        -0.1150 
      4 C4         -5.6664   -9.3174   36.4789 C.ar      1 UNK        -0.1150 
      5 C5         -8.7618   -2.7068   38.9298 C.ar      1 UNK        -0.1150 
      6 C6         -8.5013   -3.9813   36.4329 C.ar      1 UNK        -0.1150 
      7 C7         -5.1454  -11.1985   35.0144 C.ar      1 UNK        -0.1150 
      8 C8         -5.7388  -10.1747   40.1952 C.2       1 UNK        -0.1540 
      9 C9         -6.2447   -9.2024   41.1031 C.2       1 UNK        -0.1540 
     10 C10        -5.3756  -11.5438   37.4101 C.ar      1 UNK        -0.1150 
     11 C11        -5.6498  -10.1716   37.6040 C.ar      1 UNK        -0.4134 
     12 C12        -8.6646   -4.1128   38.8697 C.ar      1 UNK        -0.1150 
     13 C13        -8.5385   -4.7573   37.6112 C.ar      1 UNK        -0.1150 
     14 C14        -5.1243  -12.0715   36.1286 C.ar      1 UNK         0.0850 
     15 C15        -5.9208   -9.6611   38.9420 C.2       1 UNK         0.5364 
     16 C16        -6.7299   -8.1736   40.3427 C.2       1 UNK         0.0453 
     17 C17        -7.3447   -6.8907   40.7548 C.2       1 UNK         0.5777 
     18 C18        -8.7094   -4.9212   40.1638 C.3       1 UNK         0.0650 
     19 C19        -8.9529   -6.9332   38.8191 C.3       1 UNK        -0.0500 
     20 C20        -8.4366   -6.2784   37.5286 C.3       1 UNK         0.3200 
     21 C21        -4.6350  -13.9886   34.7730 C.3       1 UNK         0.1100 
     22 N22        -8.2843   -6.3125   39.9677 N.am      1 UNK        -0.1400 
     23 O23        -6.9803   -6.3907   41.8178 O.2       1 UNK        -0.5000 
     24 O24        -6.5006   -8.4330   39.0236 O.3       1 UNK        -0.1900 
     25 O25        -9.1519   -6.8163   36.4364 O.3       1 UNK        -0.6830 
     26 O26        -4.8729  -13.4236   36.0534 O.3       1 UNK        -0.2850 
     27 H27        -8.7984   -0.8648   37.8005 H         1 UNK         0.1150 
     28 H28        -8.5680   -1.9918   35.5938 H         1 UNK         0.1150 
     29 H29        -5.4245   -9.1681   34.3378 H         1 UNK         0.1150 
     30 H30        -5.8607   -8.2605   36.5917 H         1 UNK         0.1150 
     31 H31        -8.8646   -2.2088   39.8832 H         1 UNK         0.1150 
     32 H32        -8.4097   -4.4679   35.4724 H         1 UNK         0.1150 
     33 H33        -4.9560  -11.5534   34.0136 H         1 UNK         0.1150 
     34 H34        -5.2917  -11.1300   40.4252 H         1 UNK         0.1260 
     35 H35        -6.2633   -9.2436   42.1829 H         1 UNK         0.1260 
     36 H36        -5.3599  -12.2208   38.2518 H         1 UNK         0.1150 
     37 H37        -8.0946   -4.4035   40.9029 H         1 UNK         0.0600 
     38 H38        -9.7282   -4.9116   40.5528 H         1 UNK         0.0600 
     39 H39       -10.0245   -6.7465   38.9112 H         1 UNK         0.0600 
     40 H40        -8.8617   -8.0182   38.7941 H         1 UNK         0.0600 
     41 H41        -7.3816   -6.5180   37.3884 H         1 UNK         0.0600 
     42 H42        -4.4689  -15.0605   34.8785 H         1 UNK         0.0300 
     43 H43        -3.7459  -13.5610   34.3077 H         1 UNK         0.0300 
     44 H44        -5.4914  -13.8519   34.1114 H         1 UNK         0.0300 
     45 H45        -8.9294   -7.7307   36.3437 H         1 UNK         0.4180 
@<TRIPOS>BOND
     1    1    2 ar   
     2    1    5 ar   
     3    1   27 1    
     4    2    6 ar   
     5    2   28 1    
     6    3    4 ar   
     7    3    7 ar   
     8    3   29 1    
     9    4   11 ar   
    10    4   30 1    
    11    5   12 ar   
    12    5   31 1    
    13    6   13 ar   
    14    6   32 1    
    15    7   14 ar   
    16    7   33 1    
    17    8    9 1    
    18    8   15 2    
    19    8   34 1    
    20    9   16 2    
    21    9   35 1    
    22   10   11 ar   
    23   10   14 ar   
    24   10   36 1    
    25   11   15 1    
    26   12   13 ar   
    27   12   18 1    
    28   13   20 1    
    29   14   26 1    
    30   15   24 1    
    31   16   17 1    
    32   16   24 1    
    33   17   22 am   BACKBONE|DICT|INTERRES
    34   17   23 2    
    35   18   22 1    
    36   18   37 1    
    37   18   38 1    
    38   19   20 1    
    39   19   22 1    
    40   19   39 1    
    41   19   40 1    
    42   20   25 1    
    43   20   41 1    
    44   21   26 1    
    45   21   42 1    
    46   21   43 1    
    47   21   44 1    
    48   25   45 1    
@<TRIPOS>SUBSTRUCTURE
     1 UNK         1 GROUP             0       ****    0 ROOT    
@<TRIPOS>MOLECULE
ZINC82126884_96
45   48    1
SMALL
USER_CHARGES


@<TRIPOS>ATOM
      1 C1        -17.1044  -11.8647   35.6709 C.ar      1 UNK        -0.1150 
      2 C2        -16.4343  -10.6345   35.5374 C.ar      1 UNK        -0.1150 
      3 C3         -9.5712  -18.6298   36.1734 C.ar      1 UNK        -0.1150 
      4 C4        -10.3932  -17.7569   36.9093 C.ar      1 UNK        -0.1150 
      5 C5        -16.7315  -12.7630   36.6886 C.ar      1 UNK        -0.1150 
      6 C6        -15.3950  -10.2999   36.4259 C.ar      1 UNK        -0.1150 
      7 C7         -9.9328  -19.9804   36.0156 C.ar      1 UNK        -0.1150 
      8 C8        -13.5835  -17.5348   38.9982 C.2       1 UNK        -0.1540 
      9 C9        -13.9677  -16.2650   39.5116 C.2       1 UNK        -0.1540 
     10 C10       -11.9393  -19.5838   37.3310 C.ar      1 UNK        -0.1150 
     11 C11       -11.5887  -18.2249   37.4981 C.ar      1 UNK        -0.4134 
     12 C12       -15.6859  -12.4371   37.5782 C.ar      1 UNK        -0.1150 
     13 C13       -15.0185  -11.1921   37.4529 C.ar      1 UNK        -0.1150 
     14 C14       -11.1271  -20.4704   36.5973 C.ar      1 UNK         0.0850 
     15 C15       -12.4493  -17.3291   38.2629 C.2       1 UNK         0.5364 
     16 C16       -13.0581  -15.3606   39.0299 C.2       1 UNK         0.0453 
     17 C17       -12.8948  -13.9074   39.2572 C.2       1 UNK         0.5777 
     18 C18       -15.2872  -13.4343   38.6601 C.3       1 UNK         0.0650 
     19 C19       -13.8968  -11.7031   39.6698 C.3       1 UNK        -0.0500 
     20 C20       -13.9036  -10.8082   38.4204 C.3       1 UNK         0.3200 
     21 C21       -10.7571  -22.6928   35.7768 C.3       1 UNK         0.1100 
     22 N22       -13.9898  -13.1103   39.2700 N.am      1 UNK        -0.1400 
     23 O23       -11.7635  -13.4681   39.4550 O.2       1 UNK        -0.5000 
     24 O24       -12.1147  -16.0098   38.2904 O.3       1 UNK        -0.1900 
     25 O25       -14.0230   -9.4675   38.8407 O.3       1 UNK        -0.6830 
     26 O26       -11.5627  -21.7735   36.4985 O.3       1 UNK        -0.2850 
     27 H27       -17.9021  -12.1212   34.9886 H         1 UNK         0.1150 
     28 H28       -16.7164   -9.9467   34.7533 H         1 UNK         0.1150 
     29 H29        -8.6582  -18.2618   35.7288 H         1 UNK         0.1150 
     30 H30       -10.0937  -16.7236   37.0198 H         1 UNK         0.1150 
     31 H31       -17.2494  -13.7074   36.7772 H         1 UNK         0.1150 
     32 H32       -14.8828   -9.3536   36.3200 H         1 UNK         0.1150 
     33 H33        -9.2770  -20.6183   35.4447 H         1 UNK         0.1150 
     34 H34       -14.0640  -18.4883   39.1559 H         1 UNK         0.1260 
     35 H35       -14.8026  -16.0404   40.1587 H         1 UNK         0.1260 
     36 H36       -12.8483  -19.9706   37.7675 H         1 UNK         0.1150 
     37 H37       -16.0542  -13.4434   39.4353 H         1 UNK         0.0600 
     38 H38       -15.3038  -14.4184   38.1940 H         1 UNK         0.0600 
     39 H39       -13.0177  -11.4947   40.2833 H         1 UNK         0.0600 
     40 H40       -14.7573  -11.4758   40.3003 H         1 UNK         0.0600 
     41 H41       -12.9526  -10.9178   37.8954 H         1 UNK         0.0600 
     42 H42       -11.2289  -23.6752   35.7938 H         1 UNK         0.0300 
     43 H43        -9.7683  -22.7944   36.2263 H         1 UNK         0.0300 
     44 H44       -10.6518  -22.3958   34.7323 H         1 UNK         0.0300 
     45 H45       -14.9132   -9.3327   39.1277 H         1 UNK         0.4180 
@<TRIPOS>BOND
     1    1    2 ar   
     2    1    5 ar   
     3    1   27 1    
     4    2    6 ar   
     5    2   28 1    
     6    3    4 ar   
     7    3    7 ar   
     8    3   29 1    
     9    4   11 ar   
    10    4   30 1    
    11    5   12 ar   
    12    5   31 1    
    13    6   13 ar   
    14    6   32 1    
    15    7   14 ar   
    16    7   33 1    
    17    8    9 1    
    18    8   15 2    
    19    8   34 1    
    20    9   16 2    
    21    9   35 1    
    22   10   11 ar   
    23   10   14 ar   
    24   10   36 1    
    25   11   15 1    
    26   12   13 ar   
    27   12   18 1    
    28   13   20 1    
    29   14   26 1    
    30   15   24 1    
    31   16   17 1    
    32   16   24 1    
    33   17   22 am   BACKBONE|DICT|INTERRES
    34   17   23 2    
    35   18   22 1    
    36   18   37 1    
    37   18   38 1    
    38   19   20 1    
    39   19   22 1    
    40   19   39 1    
    41   19   40 1    
    42   20   25 1    
    43   20   41 1    
    44   21   26 1    
    45   21   42 1    
    46   21   43 1    
    47   21   44 1    
    48   25   45 1    
@<TRIPOS>SUBSTRUCTURE
     1 UNK         1 GROUP             0       ****    0 ROOT    
@<TRIPOS>MOLECULE
ZINC83921366_23
48   50    1
SMALL
USER_CHARGES


@<TRIPOS>ATOM
      1 C1         -5.2721   -9.7871   36.4865 C.ar      1 UNK        -0.3200 
      2 C2         -7.8866   -5.0374   39.6381 C.ar      1 UNK        -0.1150 
      3 C3         -8.8556   -7.0781   38.7248 C.ar      1 UNK        -0.1150 
      4 C4         -5.2837  -10.6337   35.3416 C.ar      1 UNK         0.2660 
      5 C5         -8.0487   -6.4365   39.6883 C.ar      1 UNK        -0.1150 
      6 C6         -8.4803   -4.2766   38.6021 C.ar      1 UNK         0.0850 
      7 C7         -9.4476   -6.3409   37.6730 C.ar      1 UNK         0.0850 
      8 C8         -9.2458   -4.9439   37.6159 C.ar      1 UNK         0.0850 
      9 C9         -6.1384  -10.3827   37.3622 C.ar      1 UNK         0.0560 
     10 C10        -7.4165   -7.2149   40.8074 C.2       1 UNK         0.6150 
     11 C11        -6.5546  -10.6188   41.2220 C.3       1 UNK        -0.1200 
     12 C12        -6.1491  -11.0425   39.7980 C.3       1 UNK        -0.1200 
     13 C13        -6.0987   -9.1810   41.5314 C.3       1 UNK        -0.0500 
     14 C14        -6.0966   -8.6037   39.1666 C.3       1 UNK        -0.0500 
     15 C15        -6.5867  -10.0057   38.7415 C.3       1 UNK         0.0550 
     16 C16        -7.6743   -2.2061   39.5257 C.3       1 UNK         0.1100 
     17 C17       -10.3785   -8.3199   36.6680 C.3       1 UNK         0.1100 
     18 C18        -8.9304   -3.8305   35.5871 C.3       1 UNK         0.1100 
     19 N19        -6.0882  -11.6729   35.4915 N.2       1 UNK        -0.5310 
     20 N20        -6.6024  -11.5122   36.7248 N.pl3     1 UNK        -0.1490 
     21 N21        -6.6215   -8.2726   40.5012 N.am      1 UNK        -0.1400 
     22 O22        -7.6389   -6.8617   41.9641 O.2       1 UNK        -0.5000 
     23 O23        -8.3584   -2.9059   38.4975 O.3       1 UNK        -0.2850 
     24 O24       -10.2151   -6.9100   36.6778 O.3       1 UNK        -0.2850 
     25 O25        -9.8363   -4.2382   36.5986 O.3       1 UNK        -0.2850 
     26 H26        -4.7083   -8.8778   36.6297 H         1 UNK         0.1500 
     27 H27        -7.2970   -4.5696   40.4124 H         1 UNK         0.1150 
     28 H28        -9.0087   -8.1411   38.8110 H         1 UNK         0.1150 
     29 H29        -4.7370  -10.5247   34.4156 H         1 UNK         0.0720 
     30 H30        -7.6383  -10.6862   41.3302 H         1 UNK         0.0600 
     31 H31        -6.1309  -11.3095   41.9525 H         1 UNK         0.0600 
     32 H32        -5.0649  -11.1610   39.7563 H         1 UNK         0.0600 
     33 H33        -6.5708  -12.0223   39.5713 H         1 UNK         0.0600 
     34 H34        -6.4274   -8.9104   42.5366 H         1 UNK         0.0600 
     35 H35        -5.0097   -9.1200   41.5484 H         1 UNK         0.0600 
     36 H36        -5.0063   -8.5885   39.2074 H         1 UNK         0.0600 
     37 H37        -6.3563   -7.8650   38.4090 H         1 UNK         0.0600 
     38 H38        -7.6767   -9.9891   38.7318 H         1 UNK         0.0600 
     39 H39        -7.7010   -1.1378   39.3113 H         1 UNK         0.0300 
     40 H40        -6.6266   -2.5040   39.5830 H         1 UNK         0.0300 
     41 H41        -8.1492   -2.3588   40.4960 H         1 UNK         0.0300 
     42 H42       -10.9783   -8.6047   35.8036 H         1 UNK         0.0300 
     43 H43       -10.9028   -8.6660   37.5597 H         1 UNK         0.0300 
     44 H44        -9.4193   -8.8337   36.5869 H         1 UNK         0.0300 
     45 H45        -9.4851   -3.3759   34.7666 H         1 UNK         0.0300 
     46 H46        -8.3802   -4.6830   35.1859 H         1 UNK         0.0300 
     47 H47        -8.2147   -3.0944   35.9533 H         1 UNK         0.0300 
     48 H48        -7.2581  -12.1777   37.1130 H         1 UNK         0.3410 
@<TRIPOS>BOND
     1    1    4 ar   
     2    1    9 ar   
     3    1   26 1    
     4    2    5 ar   
     5    2    6 ar   
     6    2   27 1    
     7    3    5 ar   
     8    3    7 ar   
     9    3   28 1    
    10    4   19 ar   
    11    4   29 1    
    12    5   10 1    
    13    6    8 ar   
    14    6   23 1    
    15    7    8 ar   
    16    7   24 1    
    17    8   25 1    
    18    9   15 1    
    19    9   20 ar   
    20   10   21 am   BACKBONE|DICT|INTERRES
    21   10   22 2    
    22   11   12 1    
    23   11   13 1    
    24   11   30 1    
    25   11   31 1    
    26   12   15 1    
    27   12   32 1    
    28   12   33 1    
    29   13   21 1    
    30   13   34 1    
    31   13   35 1    
    32   14   15 1    
    33   14   21 1    
    34   14   36 1    
    35   14   37 1    
    36   15   38 1    
    37   16   23 1    
    38   16   39 1    
    39   16   40 1    
    40   16   41 1    
    41   17   24 1    
    42   17   42 1    
    43   17   43 1    
    44   17   44 1    
    45   18   25 1    
    46   18   45 1    
    47   18   46 1    
    48   18   47 1    
    49   19   20 ar   
    50   20   48 1    
@<TRIPOS>SUBSTRUCTURE
     1 UNK         1 GROUP             0       ****    0 ROOT    
@<TRIPOS>MOLECULE
ZINC83921366_26
48   50    1
SMALL
USER_CHARGES


@<TRIPOS>ATOM
      1 C1         -9.2058  -13.2508   36.2665 C.ar      1 UNK        -0.3200 
      2 C2        -10.1125   -7.5016   39.4628 C.ar      1 UNK        -0.1150 
      3 C3        -11.1554   -9.5684   38.7239 C.ar      1 UNK        -0.1150 
      4 C4         -8.3008  -13.5613   35.2916 C.ar      1 UNK         0.0360 
      5 C5        -10.2907   -8.8900   39.6035 C.ar      1 UNK        -0.1150 
      6 C6        -10.7456   -6.7812   38.4191 C.ar      1 UNK         0.0850 
      7 C7        -11.7903   -8.8799   37.6649 C.ar      1 UNK         0.0850 
      8 C8        -11.5704   -7.4919   37.4970 C.ar      1 UNK         0.0850 
      9 C9         -8.4067  -12.9333   37.4029 C.ar      1 UNK         0.2230 
     10 C10        -9.6214   -9.6144   40.7367 C.2       1 UNK         0.6150 
     11 C11        -8.8393  -13.0209   41.2702 C.3       1 UNK        -0.1200 
     12 C12        -8.4575  -13.5162   39.8628 C.3       1 UNK        -0.1200 
     13 C13        -8.3376  -11.5840   41.5104 C.3       1 UNK        -0.0500 
     14 C14        -8.3686  -11.0899   39.1237 C.3       1 UNK        -0.0500 
     15 C15        -8.8692  -12.5060   38.7721 C.3       1 UNK         0.0550 
     16 C16        -9.8570   -4.6967   39.2585 C.3       1 UNK         0.1100 
     17 C17       -12.8985  -10.8814   36.9100 C.3       1 UNK         0.1100 
     18 C18       -11.6679   -5.7837   35.7907 C.3       1 UNK         0.1100 
     19 N19        -7.1102  -13.0419   37.1473 N.2       1 UNK        -0.5310 
     20 N20        -7.0556  -13.4257   35.8582 N.pl3     1 UNK        -0.1490 
     21 N21        -8.8598  -10.7021   40.4564 N.am      1 UNK        -0.1400 
     22 O22        -9.7959   -9.1974   41.8808 O.2       1 UNK        -0.5000 
     23 O23       -10.6052   -5.4134   38.2867 O.3       1 UNK        -0.2850 
     24 O24       -12.6263   -9.4973   36.7559 O.3       1 UNK        -0.2850 
     25 O25       -12.2342   -6.9167   36.4301 O.3       1 UNK        -0.2850 
     26 H26       -10.2817  -13.2482   36.1804 H         1 UNK         0.1500 
     27 H27        -9.4795   -7.0096   40.1856 H         1 UNK         0.1150 
     28 H28       -11.3185  -10.6221   38.8816 H         1 UNK         0.1150 
     29 H29        -8.4372  -13.8611   34.2623 H         1 UNK         0.1350 
     30 H30        -9.9234  -13.0527   41.3887 H         1 UNK         0.0600 
     31 H31        -8.4282  -13.6924   42.0250 H         1 UNK         0.0600 
     32 H32        -7.3776  -13.6671   39.8233 H         1 UNK         0.0600 
     33 H33        -8.9086  -14.4889   39.6649 H         1 UNK         0.0600 
     34 H34        -8.6349  -11.2631   42.5106 H         1 UNK         0.0600 
     35 H35        -7.2471  -11.5542   41.4989 H         1 UNK         0.0600 
     36 H36        -7.2777  -11.0789   39.1375 H         1 UNK         0.0600 
     37 H37        -8.6440  -10.3892   38.3362 H         1 UNK         0.0600 
     38 H38        -9.9586  -12.4781   38.7580 H         1 UNK         0.0600 
     39 H39        -9.8845   -3.6340   39.0187 H         1 UNK         0.0300 
     40 H40        -8.8108   -5.0050   39.2640 H         1 UNK         0.0300 
     41 H41       -10.2786   -4.8183   40.2574 H         1 UNK         0.0300 
     42 H42       -13.5739  -11.2040   36.1177 H         1 UNK         0.0300 
     43 H43       -13.3871  -11.0869   37.8635 H         1 UNK         0.0300 
     44 H44       -11.9893  -11.4782   36.8307 H         1 UNK         0.0300 
     45 H45       -12.0535   -5.7208   34.7735 H         1 UNK         0.0300 
     46 H46       -10.5809   -5.8477   35.7249 H         1 UNK         0.0300 
     47 H47       -11.9507   -4.8625   36.3002 H         1 UNK         0.0300 
     48 H48        -6.1746  -13.5873   35.3869 H         1 UNK         0.3410 
@<TRIPOS>BOND
     1    1    4 ar   
     2    1    9 ar   
     3    1   26 1    
     4    2    5 ar   
     5    2    6 ar   
     6    2   27 1    
     7    3    5 ar   
     8    3    7 ar   
     9    3   28 1    
    10    4   20 ar   
    11    4   29 1    
    12    5   10 1    
    13    6    8 ar   
    14    6   23 1    
    15    7    8 ar   
    16    7   24 1    
    17    8   25 1    
    18    9   15 1    
    19    9   19 ar   
    20   10   21 am   BACKBONE|DICT|INTERRES
    21   10   22 2    
    22   11   12 1    
    23   11   13 1    
    24   11   30 1    
    25   11   31 1    
    26   12   15 1    
    27   12   32 1    
    28   12   33 1    
    29   13   21 1    
    30   13   34 1    
    31   13   35 1    
    32   14   15 1    
    33   14   21 1    
    34   14   36 1    
    35   14   37 1    
    36   15   38 1    
    37   16   23 1    
    38   16   39 1    
    39   16   40 1    
    40   16   41 1    
    41   17   24 1    
    42   17   42 1    
    43   17   43 1    
    44   17   44 1    
    45   18   25 1    
    46   18   45 1    
    47   18   46 1    
    48   18   47 1    
    49   19   20 ar   
    50   20   48 1    
@<TRIPOS>SUBSTRUCTURE
     1 UNK         1 GROUP             0       ****    0 ROOT    
@<TRIPOS>MOLECULE
ZINC83921369_133
48   50    1
SMALL
USER_CHARGES


@<TRIPOS>ATOM
      1 C1         -6.9877  -12.0819   36.3517 C.ar      1 UNK        -0.3200 
      2 C2        -11.5768   -9.3456   38.8210 C.ar      1 UNK        -0.1150 
      3 C3         -9.8313   -7.7093   39.2509 C.ar      1 UNK        -0.1150 
      4 C4         -7.1169  -13.0836   35.3475 C.ar      1 UNK         0.2660 
      5 C5        -10.4207   -8.9570   39.5254 C.ar      1 UNK        -0.1150 
      6 C6        -12.1077   -8.5223   37.8012 C.ar      1 UNK         0.0850 
      7 C7        -10.3480   -6.8568   38.2436 C.ar      1 UNK         0.0850 
      8 C8        -11.4848   -7.2881   37.4972 C.ar      1 UNK         0.0850 
      9 C9         -7.6602  -12.5893   37.4279 C.ar      1 UNK         0.0560 
     10 C10        -9.8617   -9.8134   40.6254 C.2       1 UNK         0.6150 
     11 C11        -7.6813  -12.3588   41.3094 C.3       1 UNK        -0.1200 
     12 C12        -7.3495  -12.9178   39.9146 C.3       1 UNK        -0.1200 
     13 C13        -9.1830  -12.0465   41.4300 C.3       1 UNK        -0.0500 
     14 C14        -9.3993  -11.7070   39.0269 C.3       1 UNK        -0.0500 
     15 C15        -7.9056  -12.0188   38.7894 C.3       1 UNK         0.0550 
     16 C16       -13.8726  -10.0930   37.3242 C.3       1 UNK         0.1100 
     17 C17        -8.7161   -5.1568   38.7827 C.3       1 UNK         0.1100 
     18 C18       -11.2913   -5.6898   35.6933 C.3       1 UNK         0.1100 
     19 N19        -7.8117  -14.1296   35.7644 N.2       1 UNK        -0.5310 
     20 N20        -8.1388  -13.8191   37.0325 N.pl3     1 UNK        -0.1490 
     21 N21        -9.5748  -11.1144   40.3637 N.am      1 UNK        -0.1400 
     22 O22        -9.6844   -9.3035   41.7307 O.2       1 UNK        -0.5000 
     23 O23       -13.2207   -8.8611   37.0578 O.3       1 UNK        -0.2850 
     24 O24        -9.7976   -5.6165   37.9846 O.3       1 UNK        -0.2850 
     25 O25       -12.0825   -6.5631   36.4839 O.3       1 UNK        -0.2850 
     26 H26        -6.4778  -11.1328   36.2830 H         1 UNK         0.1500 
     27 H27       -12.0401  -10.2856   39.0783 H         1 UNK         0.1150 
     28 H28        -8.9764   -7.4252   39.8457 H         1 UNK         0.1150 
     29 H29        -6.7309  -13.0817   34.3379 H         1 UNK         0.0720 
     30 H30        -7.3816  -13.0707   42.0796 H         1 UNK         0.0600 
     31 H31        -7.1045  -11.4502   41.4906 H         1 UNK         0.0600 
     32 H32        -6.2700  -13.0325   39.8045 H         1 UNK         0.0600 
     33 H33        -7.7726  -13.9194   39.8298 H         1 UNK         0.0600 
     34 H34        -9.7687  -12.9624   41.3411 H         1 UNK         0.0600 
     35 H35        -9.4024  -11.6548   42.4255 H         1 UNK         0.0600 
     36 H36        -9.7406  -11.0630   38.2179 H         1 UNK         0.0600 
     37 H37        -9.9993  -12.6148   38.9567 H         1 UNK         0.0600 
     38 H38        -7.3674  -11.0705   38.8429 H         1 UNK         0.0600 
     39 H39       -14.7188  -10.2030   36.6462 H         1 UNK         0.0300 
     40 H40       -14.2602  -10.1271   38.3433 H         1 UNK         0.0300 
     41 H41       -13.2069  -10.9411   37.1591 H         1 UNK         0.0300 
     42 H42        -8.4336   -4.1549   38.4594 H         1 UNK         0.0300 
     43 H43        -7.8389   -5.7957   38.6733 H         1 UNK         0.0300 
     44 H44        -8.9935   -5.0952   39.8360 H         1 UNK         0.0300 
     45 H45       -11.7877   -5.5309   34.7364 H         1 UNK         0.0300 
     46 H46       -10.3039   -6.1043   35.4845 H         1 UNK         0.0300 
     47 H47       -11.1865   -4.7141   36.1681 H         1 UNK         0.0300 
     48 H48        -8.6750  -14.4533   37.6096 H         1 UNK         0.3410 
@<TRIPOS>BOND
     1    1    4 ar   
     2    1    9 ar   
     3    1   26 1    
     4    2    5 ar   
     5    2    6 ar   
     6    2   27 1    
     7    3    5 ar   
     8    3    7 ar   
     9    3   28 1    
    10    4   19 ar   
    11    4   29 1    
    12    5   10 1    
    13    6    8 ar   
    14    6   23 1    
    15    7    8 ar   
    16    7   24 1    
    17    8   25 1    
    18    9   15 1    
    19    9   20 ar   
    20   10   21 am   BACKBONE|DICT|INTERRES
    21   10   22 2    
    22   11   12 1    
    23   11   13 1    
    24   11   30 1    
    25   11   31 1    
    26   12   15 1    
    27   12   32 1    
    28   12   33 1    
    29   13   21 1    
    30   13   34 1    
    31   13   35 1    
    32   14   15 1    
    33   14   21 1    
    34   14   36 1    
    35   14   37 1    
    36   15   38 1    
    37   16   23 1    
    38   16   39 1    
    39   16   40 1    
    40   16   41 1    
    41   17   24 1    
    42   17   42 1    
    43   17   43 1    
    44   17   44 1    
    45   18   25 1    
    46   18   45 1    
    47   18   46 1    
    48   18   47 1    
    49   19   20 ar   
    50   20   48 1    
@<TRIPOS>SUBSTRUCTURE
     1 UNK         1 GROUP             0       ****    0 ROOT    
@<TRIPOS>MOLECULE
ZINC83921369_140
48   50    1
SMALL
USER_CHARGES


@<TRIPOS>ATOM
      1 C1        -17.3871  -23.7101   36.7985 C.ar      1 UNK        -0.3200 
      2 C2        -18.9755  -17.2641   39.3204 C.ar      1 UNK        -0.1150 
      3 C3        -20.4585  -19.1656   39.0527 C.ar      1 UNK        -0.1150 
      4 C4        -16.9391  -23.6233   35.5111 C.ar      1 UNK         0.0360 
      5 C5        -19.3306  -18.5820   39.6590 C.ar      1 UNK        -0.1150 
      6 C6        -19.6958  -16.5450   38.3352 C.ar      1 UNK         0.0850 
      7 C7        -21.2046  -18.4780   38.0792 C.ar      1 UNK         0.0850 
      8 C8        -20.7977  -17.1692   37.6823 C.ar      1 UNK         0.0850 
      9 C9        -16.7696  -22.6097   37.4661 C.ar      1 UNK         0.2230 
     10 C10       -18.5543  -19.3141   40.7173 C.2       1 UNK         0.6150 
     11 C11       -17.6484  -22.8709   41.2524 C.3       1 UNK        -0.1200 
     12 C12       -17.1324  -23.3350   39.8781 C.3       1 UNK        -0.1200 
     13 C13       -17.4564  -21.3634   41.4974 C.3       1 UNK        -0.0500 
     14 C14       -17.9765  -21.0781   39.0551 C.3       1 UNK        -0.0500 
     15 C15       -16.8956  -22.1647   38.9030 C.3       1 UNK         0.0550 
     16 C16       -18.3258  -14.5875   38.6791 C.3       1 UNK         0.1100 
     17 C17       -23.3428  -18.5031   36.9405 C.3       1 UNK         0.1100 
     18 C18       -20.7294  -15.9270   35.6438 C.3       1 UNK         0.1100 
     19 N19       -16.0134  -21.8958   36.6447 N.2       1 UNK        -0.5310 
     20 N20       -16.1173  -22.5233   35.4584 N.pl3     1 UNK        -0.1490 
     21 N21       -18.0770  -20.5525   40.4335 N.am      1 UNK        -0.1400 
     22 O22       -18.3754  -18.7620   41.8029 O.2       1 UNK        -0.5000 
     23 O23       -19.3819  -15.2441   37.9929 O.3       1 UNK        -0.2850 
     24 O24       -22.2748  -19.1906   37.5744 O.3       1 UNK        -0.2850 
     25 O25       -21.4935  -16.5182   36.6866 O.3       1 UNK        -0.2850 
     26 H26       -18.0607  -24.4514   37.2013 H         1 UNK         0.1500 
     27 H27       -18.1355  -16.8269   39.8388 H         1 UNK         0.1150 
     28 H28       -20.7737  -20.1570   39.3437 H         1 UNK         0.1150 
     29 H29       -17.1369  -24.2390   34.6451 H         1 UNK         0.1350 
     30 H30       -18.7137  -23.0961   41.3249 H         1 UNK         0.0600 
     31 H31       -17.1691  -23.4467   42.0451 H         1 UNK         0.0600 
     32 H32       -16.2067  -23.9020   39.9854 H         1 UNK         0.0600 
     33 H33       -17.8651  -24.0313   39.4710 H         1 UNK         0.0600 
     34 H34       -17.8807  -21.1200   42.4740 H         1 UNK         0.0600 
     35 H35       -16.3955  -21.1155   41.5576 H         1 UNK         0.0600 
     36 H36       -17.7431  -20.2693   38.3596 H         1 UNK         0.0600 
     37 H37       -18.9398  -21.4884   38.7522 H         1 UNK         0.0600 
     38 H38       -15.9463  -21.7052   39.1859 H         1 UNK         0.0600 
     39 H39       -18.2292  -13.5707   38.2988 H         1 UNK         0.0300 
     40 H40       -17.3710  -15.0898   38.5184 H         1 UNK         0.0300 
     41 H41       -18.5265  -14.5195   39.7492 H         1 UNK         0.0300 
     42 H42       -23.0835  -18.2247   35.9188 H         1 UNK         0.0300 
     43 H43       -23.6470  -17.6168   37.4994 H         1 UNK         0.0300 
     44 H44       -24.2071  -19.1646   36.8842 H         1 UNK         0.0300 
     45 H45       -20.5635  -14.8668   35.8354 H         1 UNK         0.0300 
     46 H46       -21.2818  -16.0057   34.7077 H         1 UNK         0.0300 
     47 H47       -19.7656  -16.4182   35.4992 H         1 UNK         0.0300 
     48 H48       -15.6317  -22.1907   34.6351 H         1 UNK         0.3410 
@<TRIPOS>BOND
     1    1    4 ar   
     2    1    9 ar   
     3    1   26 1    
     4    2    5 ar   
     5    2    6 ar   
     6    2   27 1    
     7    3    5 ar   
     8    3    7 ar   
     9    3   28 1    
    10    4   20 ar   
    11    4   29 1    
    12    5   10 1    
    13    6    8 ar   
    14    6   23 1    
    15    7    8 ar   
    16    7   24 1    
    17    8   25 1    
    18    9   15 1    
    19    9   19 ar   
    20   10   21 am   BACKBONE|DICT|INTERRES
    21   10   22 2    
    22   11   12 1    
    23   11   13 1    
    24   11   30 1    
    25   11   31 1    
    26   12   15 1    
    27   12   32 1    
    28   12   33 1    
    29   13   21 1    
    30   13   34 1    
    31   13   35 1    
    32   14   15 1    
    33   14   21 1    
    34   14   36 1    
    35   14   37 1    
    36   15   38 1    
    37   16   23 1    
    38   16   39 1    
    39   16   40 1    
    40   16   41 1    
    41   17   24 1    
    42   17   42 1    
    43   17   43 1    
    44   17   44 1    
    45   18   25 1    
    46   18   45 1    
    47   18   46 1    
    48   18   47 1    
    49   19   20 ar   
    50   20   48 1    
@<TRIPOS>SUBSTRUCTURE
     1 UNK         1 GROUP             0       ****    0 ROOT    
@<TRIPOS>MOLECULE
ZINC84112269_256
48   50    1
SMALL
USER_CHARGES


@<TRIPOS>ATOM
      1 C1        -10.5054  -19.5841   35.2118 C.ar      1 UNK        -0.1150 
      2 C2        -15.2603  -11.6162   38.2020 C.ar      1 UNK         0.2270 
      3 C3        -11.2175  -18.8616   36.1871 C.ar      1 UNK        -0.1150 
      4 C4         -9.7874  -20.7407   35.5674 C.ar      1 UNK        -0.1150 
      5 C5        -14.7853  -12.8204   38.7445 C.ar      1 UNK        -0.4470 
      6 C6        -14.5404  -10.4343   38.4381 C.ar      1 UNK        -0.4470 
      7 C7        -10.4892  -20.4467   37.8777 C.ar      1 UNK        -0.1150 
      8 C8        -11.2214  -19.2865   37.5364 C.ar      1 UNK         0.2100 
      9 C9         -9.7738  -21.1837   36.9121 C.ar      1 UNK         0.0850 
     10 C10       -13.6018  -12.7958   39.5149 C.ar      1 UNK         0.3658 
     11 C11       -13.3663  -10.5014   39.2202 C.ar      1 UNK         0.5716 
     12 C12       -13.0667  -14.0673   40.1162 C.2       1 UNK         0.6192 
     13 C13       -13.2477  -18.6940   40.6167 C.3       1 UNK        -0.1200 
     14 C14       -13.7036  -17.2443   40.3961 C.3       1 UNK        -0.1200 
     15 C15       -12.9099  -19.3773   39.2839 C.3       1 UNK         0.0900 
     16 C16       -12.2795  -17.1900   38.2933 C.3       1 UNK         0.0900 
     17 C17       -12.6374  -16.4610   39.6040 C.3       1 UNK         0.1400 
     18 C18        -8.3680  -23.0633   36.4024 C.3       1 UNK         0.1100 
     19 C19       -12.9798   -8.1432   39.0793 C.3       1 UNK         0.1100 
     20 N20       -12.9145  -11.6562   39.7344 N.ar      1 UNK        -0.6780 
     21 N21       -11.9301  -18.5883   38.5365 N.pl3     1 UNK        -0.6300 
     22 N22       -13.1162  -15.1220   39.2933 N.am      1 UNK        -0.5000 
     23 O23       -12.5982  -14.1165   41.2528 O.2       1 UNK        -0.5000 
     24 O24        -9.0999  -22.3027   37.3524 O.3       1 UNK        -0.2850 
     25 O25       -12.5706   -9.4235   39.5317 O.3       1 UNK        -0.2866 
     26 H26       -10.5128  -19.2505   34.1847 H         1 UNK         0.1150 
     27 H27       -16.1677  -11.5974   37.6160 H         1 UNK         0.0650 
     28 H28       -11.7662  -17.9871   35.8743 H         1 UNK         0.1150 
     29 H29        -9.2545  -21.2680   34.7912 H         1 UNK         0.1150 
     30 H30       -15.3362  -13.7375   38.5959 H         1 UNK         0.1550 
     31 H31       -14.9025   -9.5069   38.0233 H         1 UNK         0.1550 
     32 H32       -10.4564  -20.7795   38.9041 H         1 UNK         0.1150 
     33 H33       -12.3687  -18.7052   41.2629 H         1 UNK         0.0600 
     34 H34       -14.0223  -19.2562   41.1390 H         1 UNK         0.0600 
     35 H35       -14.6512  -17.2413   39.8567 H         1 UNK         0.0600 
     36 H36       -13.8868  -16.7660   41.3594 H         1 UNK         0.0600 
     37 H37       -12.5518  -20.3877   39.4820 H         1 UNK         0.0600 
     38 H38       -13.8118  -19.4844   38.6794 H         1 UNK         0.0600 
     39 H39       -13.1226  -17.1560   37.6016 H         1 UNK         0.0600 
     40 H40       -11.4423  -16.6775   37.8161 H         1 UNK         0.0600 
     41 H41       -11.7313  -16.3867   40.2107 H         1 UNK         0.0600 
     42 H42        -7.9041  -23.9129   36.9033 H         1 UNK         0.0300 
     43 H43        -7.5711  -22.4729   35.9480 H         1 UNK         0.0300 
     44 H44        -9.0180  -23.4575   35.6198 H         1 UNK         0.0300 
     45 H45       -12.2679   -7.3948   39.4267 H         1 UNK         0.0300 
     46 H46       -13.0044   -8.0962   37.9898 H         1 UNK         0.0300 
     47 H47       -13.9601   -7.8761   39.4760 H         1 UNK         0.0300 
     48 H48       -13.4782  -14.9393   38.3721 H         1 UNK         0.3000 
@<TRIPOS>BOND
     1    1    3 ar   
     2    1    4 ar   
     3    1   26 1    
     4    2    5 ar   
     5    2    6 ar   
     6    2   27 1    
     7    3    8 ar   
     8    3   28 1    
     9    4    9 ar   
    10    4   29 1    
    11    5   10 ar   
    12    5   30 1    
    13    6   11 ar   
    14    6   31 1    
    15    7    8 ar   
    16    7    9 ar   
    17    7   32 1    
    18    8   21 1    
    19    9   24 1    
    20   10   12 1    
    21   10   20 ar   
    22   11   20 ar   
    23   11   25 1    
    24   12   22 am   BACKBONE|DICT|INTERRES
    25   12   23 2    
    26   13   14 1    
    27   13   15 1    
    28   13   33 1    
    29   13   34 1    
    30   14   17 1    
    31   14   35 1    
    32   14   36 1    
    33   15   21 1    
    34   15   37 1    
    35   15   38 1    
    36   16   17 1    
    37   16   21 1    
    38   16   39 1    
    39   16   40 1    
    40   17   22 1    
    41   17   41 1    
    42   18   24 1    
    43   18   42 1    
    44   18   43 1    
    45   18   44 1    
    46   19   25 1    
    47   19   45 1    
    48   19   46 1    
    49   19   47 1    
    50   22   48 1    
@<TRIPOS>SUBSTRUCTURE
     1 UNK         1 GROUP             0       ****    0 ROOT    
@<TRIPOS>MOLECULE
ZINC84187956_67
46   48    1
SMALL
USER_CHARGES


@<TRIPOS>ATOM
      1 C1         -8.2919   -6.8032   39.0539 C.ar      1 UNK        -0.1150 
      2 C2         -8.5922   -5.9235   37.9982 C.ar      1 UNK        -0.1150 
      3 C3        -10.1620   -8.2218   38.3968 C.ar      1 UNK        -0.1150 
      4 C4         -5.6317  -11.3701   36.4303 C.ar      1 UNK        -0.3200 
      5 C5         -9.0600   -7.9694   39.2448 C.ar      1 UNK        -0.1150 
      6 C6         -9.6729   -6.1950   37.1346 C.ar      1 UNK        -0.1150 
      7 C7        -10.4713   -7.3444   37.3279 C.ar      1 UNK         0.0850 
      8 C8         -6.4504  -11.8342   37.4209 C.ar      1 UNK         0.0560 
      9 C9         -5.7206  -12.3531   35.4029 C.ar      1 UNK         0.2230 
     10 C10        -8.7425   -8.8878   40.3906 C.2       1 UNK         0.6150 
     11 C11        -6.9179  -11.6392   41.2774 C.3       1 UNK        -0.1200 
     12 C12        -6.4726  -12.2132   39.9206 C.3       1 UNK        -0.1200 
     13 C13        -8.3871  -11.1849   41.2235 C.3       1 UNK        -0.0500 
     14 C14        -8.2773  -10.8041   38.8199 C.3       1 UNK        -0.0500 
     15 C15        -6.8022  -11.2551   38.7552 C.3       1 UNK         0.0550 
     16 C16        -9.9857   -5.2423   35.9972 C.3       1 UNK        -0.0650 
     17 C17        -5.0358  -12.3757   34.0712 C.3       1 UNK        -0.0650 
     18 C18       -12.3281   -8.6959   36.6158 C.3       1 UNK         0.1100 
     19 N19        -6.5286  -13.3479   35.7296 N.2       1 UNK        -0.5310 
     20 N20        -6.9697  -13.0226   36.9582 N.pl3     1 UNK        -0.1490 
     21 N21        -8.5547  -10.2087   40.1381 N.am      1 UNK        -0.1400 
     22 O22        -8.6671   -8.4112   41.5225 O.2       1 UNK        -0.5000 
     23 O23       -11.5183   -7.5413   36.4520 O.3       1 UNK        -0.2850 
     24 H24        -7.4691   -6.5842   39.7203 H         1 UNK         0.1150 
     25 H25        -7.9908   -5.0369   37.8583 H         1 UNK         0.1150 
     26 H26       -10.7576   -9.1015   38.5857 H         1 UNK         0.1150 
     27 H27        -5.0540  -10.4578   36.4338 H         1 UNK         0.1500 
     28 H28        -6.7826  -12.3838   42.0628 H         1 UNK         0.0600 
     29 H29        -6.2843  -10.7919   41.5457 H         1 UNK         0.0600 
     30 H30        -5.4032  -12.4279   39.9371 H         1 UNK         0.0600 
     31 H31        -6.9734  -13.1693   39.7652 H         1 UNK         0.0600 
     32 H32        -9.0415  -12.0390   41.0446 H         1 UNK         0.0600 
     33 H33        -8.6883  -10.7833   42.1931 H         1 UNK         0.0600 
     34 H34        -8.4572  -10.1235   37.9894 H         1 UNK         0.0600 
     35 H35        -8.9469  -11.6498   38.6606 H         1 UNK         0.0600 
     36 H36        -6.1877  -10.3632   38.8908 H         1 UNK         0.0600 
     37 H37        -9.9372   -5.7678   35.0434 H         1 UNK         0.0600 
     38 H38       -10.9913   -4.8378   36.1130 H         1 UNK         0.0600 
     39 H39        -9.2842   -4.4090   35.9638 H         1 UNK         0.0600 
     40 H40        -4.3165  -13.1927   34.0186 H         1 UNK         0.0600 
     41 H41        -5.7557  -12.5123   33.2643 H         1 UNK         0.0600 
     42 H42        -4.5002  -11.4451   33.8865 H         1 UNK         0.0600 
     43 H43       -13.0987   -8.7062   35.8452 H         1 UNK         0.0300 
     44 H44       -12.8310   -8.6965   37.5838 H         1 UNK         0.0300 
     45 H45       -11.7433   -9.6105   36.5096 H         1 UNK         0.0300 
     46 H46        -7.6105  -13.6186   37.4641 H         1 UNK         0.3410 
@<TRIPOS>BOND
     1    1    2 ar   
     2    1    5 ar   
     3    1   24 1    
     4    2    6 ar   
     5    2   25 1    
     6    3    5 ar   
     7    3    7 ar   
     8    3   26 1    
     9    4    8 ar   
    10    4    9 ar   
    11    4   27 1    
    12    5   10 1    
    13    6    7 ar   
    14    6   16 1    
    15    7   23 1    
    16    8   15 1    
    17    8   20 ar   
    18    9   17 1    
    19    9   19 ar   
    20   10   21 am   BACKBONE|DICT|INTERRES
    21   10   22 2    
    22   11   12 1    
    23   11   13 1    
    24   11   28 1    
    25   11   29 1    
    26   12   15 1    
    27   12   30 1    
    28   12   31 1    
    29   13   21 1    
    30   13   32 1    
    31   13   33 1    
    32   14   15 1    
    33   14   21 1    
    34   14   34 1    
    35   14   35 1    
    36   15   36 1    
    37   16   37 1    
    38   16   38 1    
    39   16   39 1    
    40   17   40 1    
    41   17   41 1    
    42   17   42 1    
    43   18   23 1    
    44   18   43 1    
    45   18   44 1    
    46   18   45 1    
    47   19   20 ar   
    48   20   46 1    
@<TRIPOS>SUBSTRUCTURE
     1 UNK         1 GROUP             0       ****    0 ROOT    
@<TRIPOS>MOLECULE
ZINC84804980_132
49   51    1
SMALL
USER_CHARGES


@<TRIPOS>ATOM
      1 C1         -9.8432   -8.5680   38.8722 C.ar      1 UNK        -0.1150 
      2 C2        -10.2047   -7.7503   37.7865 C.ar      1 UNK        -0.1150 
      3 C3        -11.6463  -10.1068   38.3059 C.ar      1 UNK        -0.1150 
      4 C4         -6.9607  -13.1674   36.4443 C.ar      1 UNK        -0.3200 
      5 C5        -10.5468   -9.7627   39.1241 C.ar      1 UNK        -0.1150 
      6 C6        -11.2839   -8.1125   36.9549 C.ar      1 UNK        -0.1150 
      7 C7        -12.0200   -9.2916   37.2087 C.ar      1 UNK         0.0850 
      8 C8         -7.7869  -13.6022   37.4419 C.ar      1 UNK         0.0560 
      9 C9         -7.0299  -14.1874   35.4521 C.ar      1 UNK         0.2230 
     10 C10       -10.1679  -10.6136   40.3029 C.2       1 UNK         0.6150 
     11 C11        -8.2345  -13.2609   41.2887 C.3       1 UNK        -0.1200 
     12 C12        -7.7844  -13.8786   39.9532 C.3       1 UNK        -0.1200 
     13 C13        -9.7179  -12.8566   41.2315 C.3       1 UNK        -0.0500 
     14 C14        -9.6420  -12.5763   38.8113 C.3       1 UNK        -0.0500 
     15 C15        -8.1529  -12.9807   38.7530 C.3       1 UNK         0.0550 
     16 C16       -11.6649   -7.2233   35.7870 C.3       1 UNK        -0.0650 
     17 C17        -6.3250  -14.2513   34.1320 C.3       1 UNK        -0.0650 
     18 C18       -14.9160  -10.4479   37.6839 C.3       1 UNK        -0.1800 
     19 C19       -13.8834  -10.7163   36.5802 C.3       1 UNK         0.1400 
     20 N20        -7.8330  -15.1770   35.8060 N.2       1 UNK        -0.5310 
     21 N21        -8.2907  -14.8114   37.0172 N.pl3     1 UNK        -0.1490 
     22 N22        -9.9298  -11.9358   40.1061 N.am      1 UNK        -0.1400 
     23 O23       -10.0941  -10.0836   41.4108 O.2       1 UNK        -0.5000 
     24 O24       -13.0677   -9.5723   36.3541 O.3       1 UNK        -0.2850 
     25 H25        -9.0235   -8.2785   39.5155 H         1 UNK         0.1150 
     26 H26        -9.6525   -6.8407   37.5993 H         1 UNK         0.1150 
     27 H27       -12.1902  -11.0070   38.5444 H         1 UNK         0.1150 
     28 H28        -6.3885  -12.2519   36.4219 H         1 UNK         0.1500 
     29 H29        -8.0672  -13.9659   42.1039 H         1 UNK         0.0600 
     30 H30        -7.6261  -12.3830   41.5129 H         1 UNK         0.0600 
     31 H31        -6.7087  -14.0600   39.9682 H         1 UNK         0.0600 
     32 H32        -8.2568  -14.8551   39.8418 H         1 UNK         0.0600 
     33 H33       -10.3467  -13.7378   41.0987 H         1 UNK         0.0600 
     34 H34       -10.0210  -12.4221   42.1864 H         1 UNK         0.0600 
     35 H35        -9.8487  -11.9362   37.9552 H         1 UNK         0.0600 
     36 H36       -10.2850  -13.4487   38.6924 H         1 UNK         0.0600 
     37 H37        -7.5683  -12.0638   38.8481 H         1 UNK         0.0600 
     38 H38       -11.5963   -7.7812   34.8528 H         1 UNK         0.0600 
     39 H39       -12.6912   -6.8735   35.9014 H         1 UNK         0.0600 
     40 H40       -11.0140   -6.3521   35.7127 H         1 UNK         0.0600 
     41 H41        -5.4148  -14.8453   34.2076 H         1 UNK         0.0600 
     42 H42        -6.9574  -14.7053   33.3690 H         1 UNK         0.0600 
     43 H43        -6.0490  -13.2560   33.7850 H         1 UNK         0.0600 
     44 H44       -14.4441  -10.2341   38.6422 H         1 UNK         0.0600 
     45 H45       -15.5396   -9.5916   37.4265 H         1 UNK         0.0600 
     46 H46       -15.5713  -11.3080   37.8201 H         1 UNK         0.0600 
     47 H47       -14.4128  -10.9211   35.6494 H         1 UNK         0.0300 
     48 H48       -13.2915  -11.6103   36.7785 H         1 UNK         0.0300 
     49 H49        -8.9312  -15.3950   37.5377 H         1 UNK         0.3410 
@<TRIPOS>BOND
     1    1    2 ar   
     2    1    5 ar   
     3    1   25 1    
     4    2    6 ar   
     5    2   26 1    
     6    3    5 ar   
     7    3    7 ar   
     8    3   27 1    
     9    4    8 ar   
    10    4    9 ar   
    11    4   28 1    
    12    5   10 1    
    13    6    7 ar   
    14    6   16 1    
    15    7   24 1    
    16    8   15 1    
    17    8   21 ar   
    18    9   17 1    
    19    9   20 ar   
    20   10   22 am   BACKBONE|DICT|INTERRES
    21   10   23 2    
    22   11   12 1    
    23   11   13 1    
    24   11   29 1    
    25   11   30 1    
    26   12   15 1    
    27   12   31 1    
    28   12   32 1    
    29   13   22 1    
    30   13   33 1    
    31   13   34 1    
    32   14   15 1    
    33   14   22 1    
    34   14   35 1    
    35   14   36 1    
    36   15   37 1    
    37   16   38 1    
    38   16   39 1    
    39   16   40 1    
    40   17   41 1    
    41   17   42 1    
    42   17   43 1    
    43   18   19 1    
    44   18   44 1    
    45   18   45 1    
    46   18   46 1    
    47   19   24 1    
    48   19   47 1    
    49   19   48 1    
    50   20   21 ar   
    51   21   49 1    
@<TRIPOS>SUBSTRUCTURE
     1 UNK         1 GROUP             0       ****    0 ROOT    
@<TRIPOS>MOLECULE
ZINC84804980_157
49   51    1
SMALL
USER_CHARGES


@<TRIPOS>ATOM
      1 C1        -13.2568  -12.8182   38.9345 C.ar      1 UNK        -0.1150 
      2 C2        -13.7272  -12.0115   37.8823 C.ar      1 UNK        -0.1150 
      3 C3        -15.1351  -14.3348   38.6033 C.ar      1 UNK        -0.1150 
      4 C4        -11.6659  -19.4904   37.1197 C.ar      1 UNK        -0.3200 
      5 C5        -13.9452  -13.9967   39.2867 C.ar      1 UNK        -0.1150 
      6 C6        -14.8976  -12.3696   37.1827 C.ar      1 UNK        -0.1150 
      7 C7        -15.6148  -13.5335   37.5379 C.ar      1 UNK         0.0850 
      8 C8        -11.6181  -18.0985   37.4309 C.ar      1 UNK         0.2230 
      9 C9        -11.5019  -19.5467   35.7644 C.ar      1 UNK         0.0560 
     10 C10       -13.4516  -14.8345   40.4327 C.2       1 UNK         0.6150 
     11 C11       -11.6232  -17.6364   41.2987 C.3       1 UNK        -0.1200 
     12 C12       -11.3817  -18.3291   39.9470 C.3       1 UNK        -0.1200 
     13 C13       -13.0567  -17.0833   41.3754 C.3       1 UNK        -0.0500 
     14 C14       -13.1856  -16.8511   38.9464 C.3       1 UNK        -0.0500 
     15 C15       -11.7581  -17.4097   38.7659 C.3       1 UNK         0.0550 
     16 C16       -15.3941  -11.4958   36.0475 C.3       1 UNK        -0.0650 
     17 C17       -11.4561  -20.7029   34.8253 C.3       1 UNK        -0.0650 
     18 C18       -18.6679  -15.1013   36.1734 C.3       1 UNK        -0.1800 
     19 C19       -17.4788  -14.9989   37.1297 C.3       1 UNK         0.1400 
     20 N20       -11.4466  -17.3572   36.3478 N.2       1 UNK        -0.5310 
     21 N21       -11.3737  -18.2450   35.3398 N.pl3     1 UNK        -0.1490 
     22 N22       -13.2990  -16.1708   40.2485 N.am      1 UNK        -0.1400 
     23 O23       -13.2247  -14.2827   41.5095 O.2       1 UNK        -0.5000 
     24 O24       -16.7549  -13.8189   36.8156 O.3       1 UNK        -0.2850 
     25 H25       -12.3642  -12.5337   39.4741 H         1 UNK         0.1150 
     26 H26       -13.1854  -11.1151   37.6179 H         1 UNK         0.1150 
     27 H27       -15.6635  -15.2223   38.9148 H         1 UNK         0.1150 
     28 H28       -11.8014  -20.3230   37.7931 H         1 UNK         0.1500 
     29 H29       -11.4463  -18.3364   42.1159 H         1 UNK         0.0600 
     30 H30       -10.9097  -16.8211   41.4299 H         1 UNK         0.0600 
     31 H31       -10.3399  -18.6409   39.8626 H         1 UNK         0.0600 
     32 H32       -11.9826  -19.2383   39.9110 H         1 UNK         0.0600 
     33 H33       -13.7790  -17.8996   41.3322 H         1 UNK         0.0600 
     34 H34       -13.2158  -16.6015   42.3422 H         1 UNK         0.0600 
     35 H35       -13.3942  -16.1992   38.0991 H         1 UNK         0.0600 
     36 H36       -13.9183  -17.6569   38.8927 H         1 UNK         0.0600 
     37 H37       -11.0690  -16.5631   38.7812 H         1 UNK         0.0600 
     38 H38       -15.4565  -12.0765   35.1270 H         1 UNK         0.0600 
     39 H39       -16.3886  -11.1128   36.2774 H         1 UNK         0.0600 
     40 H40       -14.7329  -10.6475   35.8720 H         1 UNK         0.0600 
     41 H41       -12.2773  -20.6547   34.1100 H         1 UNK         0.0600 
     42 H42       -10.5185  -20.7155   34.2694 H         1 UNK         0.0600 
     43 H43       -11.5377  -21.6461   35.3659 H         1 UNK         0.0600 
     44 H44       -19.3218  -14.2348   36.2706 H         1 UNK         0.0600 
     45 H45       -18.3309  -15.1517   35.1381 H         1 UNK         0.0600 
     46 H46       -19.2588  -15.9935   36.3794 H         1 UNK         0.0600 
     47 H47       -16.8422  -15.8780   37.0179 H         1 UNK         0.0300 
     48 H48       -17.8380  -14.9627   38.1592 H         1 UNK         0.0300 
     49 H49       -11.2391  -17.9473   34.3823 H         1 UNK         0.3410 
@<TRIPOS>BOND
     1    1    2 ar   
     2    1    5 ar   
     3    1   25 1    
     4    2    6 ar   
     5    2   26 1    
     6    3    5 ar   
     7    3    7 ar   
     8    3   27 1    
     9    4    8 ar   
    10    4    9 ar   
    11    4   28 1    
    12    5   10 1    
    13    6    7 ar   
    14    6   16 1    
    15    7   24 1    
    16    8   15 1    
    17    8   20 ar   
    18    9   17 1    
    19    9   21 ar   
    20   10   22 am   BACKBONE|DICT|INTERRES
    21   10   23 2    
    22   11   12 1    
    23   11   13 1    
    24   11   29 1    
    25   11   30 1    
    26   12   15 1    
    27   12   31 1    
    28   12   32 1    
    29   13   22 1    
    30   13   33 1    
    31   13   34 1    
    32   14   15 1    
    33   14   22 1    
    34   14   35 1    
    35   14   36 1    
    36   15   37 1    
    37   16   38 1    
    38   16   39 1    
    39   16   40 1    
    40   17   41 1    
    41   17   42 1    
    42   17   43 1    
    43   18   19 1    
    44   18   44 1    
    45   18   45 1    
    46   18   46 1    
    47   19   24 1    
    48   19   47 1    
    49   19   48 1    
    50   20   21 ar   
    51   21   49 1    
@<TRIPOS>SUBSTRUCTURE
     1 UNK         1 GROUP             0       ****    0 ROOT    
@<TRIPOS>MOLECULE
ZINC85222213_72
51   52    1
SMALL
USER_CHARGES


@<TRIPOS>ATOM
      1 C1         -8.3896   -6.9045   38.2989 C.ar      1 UNK        -0.1150 
      2 C2         -7.4179   -4.8800   39.2312 C.ar      1 UNK        -0.1150 
      3 C3         -7.5361   -6.2827   39.2333 C.ar      1 UNK        -0.1150 
      4 C4         -9.0838   -6.1356   37.3366 C.ar      1 UNK         0.0850 
      5 C5         -8.1083   -4.0830   38.2847 C.ar      1 UNK         0.0850 
      6 C6         -8.9301   -4.7290   37.3135 C.ar      1 UNK         0.0850 
      7 C7         -6.7856   -7.0909   40.2519 C.2       1 UNK         0.7375 
      8 C8         -5.5839   -9.2557   40.3194 C.2       1 UNK         0.4442 
      9 C9         -4.4658  -11.1098   35.1149 C.3       1 UNK        -0.1200 
     10 C10        -4.6920  -12.5138   35.6982 C.3       1 UNK        -0.1200 
     11 C11        -5.4673  -10.0404   35.5872 C.3       1 UNK        -0.1200 
     12 C12        -4.7282  -12.5812   37.2355 C.3       1 UNK        -0.1200 
     13 C13        -5.2242   -9.6081   37.0423 C.3       1 UNK        -0.1200 
     14 C14        -6.0105  -11.9682   37.8238 C.3       1 UNK        -0.1200 
     15 C15        -5.9466  -10.4556   38.1165 C.3       1 UNK         0.0920 
     16 C16       -10.1342   -8.0925   36.3927 C.3       1 UNK         0.1100 
     17 C17        -7.2569   -2.0606   39.3011 C.3       1 UNK         0.1100 
     18 C18        -9.1767   -2.8413   35.8198 C.3       1 UNK         0.1100 
     19 N19        -6.3127   -8.2527   39.7585 N.am      1 UNK        -0.3977 
     20 N20        -5.3221  -10.2442   39.4277 N.pl3     1 UNK        -0.4272 
     21 O21        -6.6134   -6.6387   41.3817 O.2       1 UNK        -0.5000 
     22 O22        -9.9160   -6.6899   36.3845 O.3       1 UNK        -0.2850 
     23 O23        -8.0225   -2.7044   38.2921 O.3       1 UNK        -0.2850 
     24 O24        -9.6494   -4.0787   36.3289 O.3       1 UNK        -0.2850 
     25 S25        -4.9535   -9.3928   41.8524 S.2       1 UNK        -0.4762 
     26 H26        -8.5137   -7.9752   38.3359 H         1 UNK         0.1150 
     27 H27        -6.7820   -4.4354   39.9826 H         1 UNK         0.1150 
     28 H28        -3.4477  -10.7831   35.3320 H         1 UNK         0.0600 
     29 H29        -4.5200  -11.1822   34.0277 H         1 UNK         0.0600 
     30 H30        -5.6108  -12.9367   35.2894 H         1 UNK         0.0600 
     31 H31        -3.8911  -13.1626   35.3404 H         1 UNK         0.0600 
     32 H32        -5.3366   -9.1651   34.9491 H         1 UNK         0.0600 
     33 H33        -6.4971  -10.3657   35.4343 H         1 UNK         0.0600 
     34 H34        -4.6974  -13.6342   37.5188 H         1 UNK         0.0600 
     35 H35        -3.8354  -12.1313   37.6717 H         1 UNK         0.0600 
     36 H36        -4.1496   -9.5951   37.2337 H         1 UNK         0.0600 
     37 H37        -5.5391   -8.5692   37.1419 H         1 UNK         0.0600 
     38 H38        -6.8445  -12.1708   37.1503 H         1 UNK         0.0600 
     39 H39        -6.2703  -12.4969   38.7427 H         1 UNK         0.0600 
     40 H40        -6.9872  -10.1315   38.1717 H         1 UNK         0.0600 
     41 H41       -10.8244   -8.3514   35.5898 H         1 UNK         0.0300 
     42 H42       -10.5839   -8.4212   37.3306 H         1 UNK         0.0300 
     43 H43        -9.2079   -8.6421   36.2198 H         1 UNK         0.0300 
     44 H44        -7.3221   -0.9812   39.1650 H         1 UNK         0.0300 
     45 H45        -6.2031   -2.3350   39.2401 H         1 UNK         0.0300 
     46 H46        -7.6366   -2.2886   40.2980 H         1 UNK         0.0300 
     47 H47        -9.6069   -2.6778   34.8320 H         1 UNK         0.0300 
     48 H48        -8.0914   -2.8296   35.7093 H         1 UNK         0.0300 
     49 H49        -9.4905   -2.0088   36.4501 H         1 UNK         0.0300 
     50 H50        -6.5296   -8.3827   38.7877 H         1 UNK         0.2912 
     51 H51        -4.7260  -10.9851   39.7736 H         1 UNK         0.2912 
@<TRIPOS>BOND
     1    1    3 ar   
     2    1    4 ar   
     3    1   26 1    
     4    2    3 ar   
     5    2    5 ar   
     6    2   27 1    
     7    3    7 1    
     8    4    6 ar   
     9    4   22 1    
    10    5    6 ar   
    11    5   23 1    
    12    6   24 1    
    13    7   19 am   BACKBONE|DICT|INTERRES
    14    7   21 2    
    15    8   19 am   BACKBONE|DICT|INTERRES
    16    8   20 1    
    17    8   25 2    
    18    9   10 1    
    19    9   11 1    
    20    9   28 1    
    21    9   29 1    
    22   10   12 1    
    23   10   30 1    
    24   10   31 1    
    25   11   13 1    
    26   11   32 1    
    27   11   33 1    
    28   12   14 1    
    29   12   34 1    
    30   12   35 1    
    31   13   15 1    
    32   13   36 1    
    33   13   37 1    
    34   14   15 1    
    35   14   38 1    
    36   14   39 1    
    37   15   20 1    
    38   15   40 1    
    39   16   22 1    
    40   16   41 1    
    41   16   42 1    
    42   16   43 1    
    43   17   23 1    
    44   17   44 1    
    45   17   45 1    
    46   17   46 1    
    47   18   24 1    
    48   18   47 1    
    49   18   48 1    
    50   18   49 1    
    51   19   50 1    
    52   20   51 1    
@<TRIPOS>SUBSTRUCTURE
     1 UNK         1 GROUP             0       ****    0 ROOT    
@<TRIPOS>MOLECULE
ZINC87051560_18
48   50    1
SMALL
USER_CHARGES


@<TRIPOS>ATOM
      1 C1         -4.0648  -10.0279   34.9648 C.ar      1 UNK        -0.1150 
      2 C2         -3.6823  -10.7575   36.1069 C.ar      1 UNK        -0.1150 
      3 C3         -4.9512   -8.9408   35.0893 C.ar      1 UNK        -0.1150 
      4 C4         -4.1863  -10.4014   37.3733 C.ar      1 UNK        -0.1150 
      5 C5         -5.4565   -8.5861   36.3551 C.ar      1 UNK        -0.1150 
      6 C6         -7.6641   -5.9113   38.7060 C.ar      1 UNK        -0.1150 
      7 C7         -6.7718   -3.2936   38.3574 C.ar      1 UNK        -0.1150 
      8 C8         -6.8108   -5.3401   39.6734 C.ar      1 UNK        -0.1150 
      9 C9         -5.0799   -9.3164   37.5034 C.ar      1 UNK        -0.0418 
     10 C10        -6.3762   -4.0040   39.5076 C.ar      1 UNK        -0.1150 
     11 C11        -8.0600   -5.2062   37.5416 C.ar      1 UNK         0.0850 
     12 C12        -7.5905   -3.8701   37.3659 C.ar      1 UNK         0.0850 
     13 C13        -6.3992   -6.1685   40.8611 C.2       1 UNK         0.6150 
     14 C14        -5.3470   -8.2679   41.6430 C.3       1 UNK        -0.0500 
     15 C15        -4.9786   -7.6033   39.3588 C.3       1 UNK        -0.0500 
     16 C16        -5.9613   -9.5852   41.1379 C.3       1 UNK         0.1400 
     17 C17        -5.6259   -8.9099   38.8627 C.3       1 UNK         0.2118 
     18 C18        -5.4834   -3.3157   40.5294 C.3       1 UNK        -0.0650 
     19 C19        -9.3961   -7.0885   36.8107 C.3       1 UNK         0.1100 
     20 C20        -8.5529   -3.5069   35.1595 C.3       1 UNK         0.1100 
     21 N21        -5.6046   -7.2405   40.6337 N.am      1 UNK        -0.1400 
     22 O22        -6.8160   -5.8691   41.9787 O.2       1 UNK        -0.5000 
     23 O23        -5.4163   -9.9135   39.8593 O.3       1 UNK        -0.4000 
     24 O24        -8.8792   -5.7832   36.5910 O.3       1 UNK        -0.2850 
     25 O25        -7.8590   -3.0302   36.3013 O.3       1 UNK        -0.2850 
     26 H26        -3.6769  -10.3013   33.9940 H         1 UNK         0.1150 
     27 H27        -3.0012  -11.5909   36.0132 H         1 UNK         0.1150 
     28 H28        -5.2421   -8.3777   34.2143 H         1 UNK         0.1150 
     29 H29        -3.8863  -10.9650   38.2451 H         1 UNK         0.1150 
     30 H30        -6.1318   -7.7469   36.4427 H         1 UNK         0.1150 
     31 H31        -8.0067   -6.9169   38.8874 H         1 UNK         0.1150 
     32 H32        -6.4377   -2.2761   38.2156 H         1 UNK         0.1150 
     33 H33        -5.7656   -8.0147   42.6187 H         1 UNK         0.0600 
     34 H34        -4.2722   -8.3794   41.7903 H         1 UNK         0.0600 
     35 H35        -3.9082   -7.7523   39.5070 H         1 UNK         0.0600 
     36 H36        -5.0568   -6.8201   38.6050 H         1 UNK         0.0600 
     37 H37        -5.7441  -10.3954   41.8344 H         1 UNK         0.0300 
     38 H38        -7.0477   -9.5066   41.0702 H         1 UNK         0.0300 
     39 H39        -6.7015   -8.7753   38.7417 H         1 UNK         0.0300 
     40 H40        -5.9948   -3.2376   41.4900 H         1 UNK         0.0600 
     41 H41        -4.5580   -3.8735   40.6750 H         1 UNK         0.0600 
     42 H42        -5.2173   -2.3068   40.2128 H         1 UNK         0.0600 
     43 H43       -10.0405   -7.3630   35.9757 H         1 UNK         0.0300 
     44 H44        -9.9999   -7.1324   37.7182 H         1 UNK         0.0300 
     45 H45        -8.5996   -7.8317   36.8662 H         1 UNK         0.0300 
     46 H46        -8.5735   -2.7220   34.4036 H         1 UNK         0.0300 
     47 H47        -9.5885   -3.7549   35.3951 H         1 UNK         0.0300 
     48 H48        -8.0536   -4.3697   34.7164 H         1 UNK         0.0300 
@<TRIPOS>BOND
     1    1    2 ar   
     2    1    3 ar   
     3    1   26 1    
     4    2    4 ar   
     5    2   27 1    
     6    3    5 ar   
     7    3   28 1    
     8    4    9 ar   
     9    4   29 1    
    10    5    9 ar   
    11    5   30 1    
    12    6    8 ar   
    13    6   11 ar   
    14    6   31 1    
    15    7   10 ar   
    16    7   12 ar   
    17    7   32 1    
    18    8   10 ar   
    19    8   13 1    
    20    9   17 1    
    21   10   18 1    
    22   11   12 ar   
    23   11   24 1    
    24   12   25 1    
    25   13   21 am   BACKBONE|DICT|INTERRES
    26   13   22 2    
    27   14   16 1    
    28   14   21 1    
    29   14   33 1    
    30   14   34 1    
    31   15   17 1    
    32   15   21 1    
    33   15   35 1    
    34   15   36 1    
    35   16   23 1    
    36   16   37 1    
    37   16   38 1    
    38   17   23 1    
    39   17   39 1    
    40   18   40 1    
    41   18   41 1    
    42   18   42 1    
    43   19   24 1    
    44   19   43 1    
    45   19   44 1    
    46   19   45 1    
    47   20   25 1    
    48   20   46 1    
    49   20   47 1    
    50   20   48 1    
@<TRIPOS>SUBSTRUCTURE
     1 UNK         1 GROUP             0       ****    0 ROOT    
@<TRIPOS>MOLECULE
ZINC87190921_18
51   53    1
SMALL
USER_CHARGES


@<TRIPOS>ATOM
      1 C1         -3.9471  -10.0856   35.0181 C.ar      1 UNK        -0.1150 
      2 C2         -3.5905  -10.8068   36.1738 C.ar      1 UNK        -0.1150 
      3 C3         -4.8463   -9.0061   35.1125 C.ar      1 UNK        -0.1150 
      4 C4         -4.1332  -10.4492   37.4237 C.ar      1 UNK        -0.1150 
      5 C5         -5.3905   -8.6500   36.3619 C.ar      1 UNK        -0.1150 
      6 C6         -7.7087   -5.9874   38.7455 C.ar      1 UNK        -0.1150 
      7 C7         -6.8550   -3.3557   38.4059 C.ar      1 UNK        -0.1150 
      8 C8         -6.8498   -5.4128   39.7056 C.ar      1 UNK        -0.1150 
      9 C9         -5.0394   -9.3713   37.5238 C.ar      1 UNK        -0.0418 
     10 C10        -6.4305   -4.0716   39.5421 C.ar      1 UNK        -0.1150 
     11 C11        -8.1324   -5.2774   37.5939 C.ar      1 UNK         0.0850 
     12 C12        -7.6900   -3.9307   37.4271 C.ar      1 UNK         0.0850 
     13 C13        -6.4188   -6.2414   40.8859 C.2       1 UNK         0.6150 
     14 C14        -4.9870   -7.6530   39.3719 C.3       1 UNK        -0.0500 
     15 C15        -5.3285   -8.3255   41.6541 C.3       1 UNK        -0.0500 
     16 C16        -5.6220   -8.9616   38.8668 C.3       1 UNK         0.2118 
     17 C17        -5.9293   -9.6635   41.1771 C.3       1 UNK         0.1700 
     18 C18        -5.5250   -3.3834   40.5526 C.3       1 UNK        -0.0650 
     19 C19        -7.4662   -9.7118   41.2271 C.3       1 UNK        -0.1800 
     20 C20        -9.4030   -7.1944   36.8370 C.3       1 UNK         0.1100 
     21 C21        -8.8669   -3.4900   35.3406 C.3       1 UNK         0.1100 
     22 N22        -5.6141   -7.3031   40.6485 N.am      1 UNK        -0.1400 
     23 O23        -6.8317   -5.9518   42.0077 O.2       1 UNK        -0.5000 
     24 O24        -5.4462   -9.9738   39.8654 O.3       1 UNK        -0.4000 
     25 O25        -8.9466   -5.8626   36.6439 O.3       1 UNK        -0.2850 
     26 O26        -7.9916   -3.0812   36.3790 O.3       1 UNK        -0.2850 
     27 H27        -3.5294  -10.3593   34.0597 H         1 UNK         0.1150 
     28 H28        -2.8997  -11.6346   36.1033 H         1 UNK         0.1150 
     29 H29        -5.1173   -8.4494   34.2270 H         1 UNK         0.1150 
     30 H30        -3.8527  -11.0062   38.3063 H         1 UNK         0.1150 
     31 H31        -6.0758   -7.8167   36.4261 H         1 UNK         0.1150 
     32 H32        -8.0343   -6.9991   38.9231 H         1 UNK         0.1150 
     33 H33        -6.5355   -2.3330   38.2677 H         1 UNK         0.1150 
     34 H34        -3.9153   -7.7932   39.5191 H         1 UNK         0.0600 
     35 H35        -5.0726   -6.8655   38.6234 H         1 UNK         0.0600 
     36 H36        -5.7183   -8.0696   42.6410 H         1 UNK         0.0600 
     37 H37        -4.2487   -8.4205   41.7749 H         1 UNK         0.0600 
     38 H38        -6.6899   -8.8207   38.7045 H         1 UNK         0.0300 
     39 H39        -5.5612  -10.4512   41.8356 H         1 UNK         0.0300 
     40 H40        -6.0095   -3.3351   41.5288 H         1 UNK         0.0600 
     41 H41        -4.5842   -3.9239   40.6598 H         1 UNK         0.0600 
     42 H42        -5.2900   -2.3629   40.2493 H         1 UNK         0.0600 
     43 H43        -7.9317   -8.9417   40.6140 H         1 UNK         0.0600 
     44 H44        -7.8230   -9.5705   42.2476 H         1 UNK         0.0600 
     45 H45        -7.8324  -10.6787   40.8817 H         1 UNK         0.0600 
     46 H46       -10.0426   -7.4772   36.0012 H         1 UNK         0.0300 
     47 H47        -9.9958   -7.2866   37.7481 H         1 UNK         0.0300 
     48 H48        -8.5736   -7.9020   36.8681 H         1 UNK         0.0300 
     49 H49        -8.9978   -2.6637   34.6423 H         1 UNK         0.0300 
     50 H50        -9.8546   -3.7483   35.7244 H         1 UNK         0.0300 
     51 H51        -8.4543   -4.3270   34.7761 H         1 UNK         0.0300 
@<TRIPOS>BOND
     1    1    2 ar   
     2    1    3 ar   
     3    1   27 1    
     4    2    4 ar   
     5    2   28 1    
     6    3    5 ar   
     7    3   29 1    
     8    4    9 ar   
     9    4   30 1    
    10    5    9 ar   
    11    5   31 1    
    12    6    8 ar   
    13    6   11 ar   
    14    6   32 1    
    15    7   10 ar   
    16    7   12 ar   
    17    7   33 1    
    18    8   10 ar   
    19    8   13 1    
    20    9   16 1    
    21   10   18 1    
    22   11   12 ar   
    23   11   25 1    
    24   12   26 1    
    25   13   22 am   BACKBONE|DICT|INTERRES
    26   13   23 2    
    27   14   16 1    
    28   14   22 1    
    29   14   34 1    
    30   14   35 1    
    31   15   17 1    
    32   15   22 1    
    33   15   36 1    
    34   15   37 1    
    35   16   24 1    
    36   16   38 1    
    37   17   19 1    
    38   17   24 1    
    39   17   39 1    
    40   18   40 1    
    41   18   41 1    
    42   18   42 1    
    43   19   43 1    
    44   19   44 1    
    45   19   45 1    
    46   20   25 1    
    47   20   46 1    
    48   20   47 1    
    49   20   48 1    
    50   21   26 1    
    51   21   49 1    
    52   21   50 1    
    53   21   51 1    
@<TRIPOS>SUBSTRUCTURE
     1 UNK         1 GROUP             0       ****    0 ROOT    
@<TRIPOS>MOLECULE
ZINC87272328_84
48   50    1
SMALL
USER_CHARGES


@<TRIPOS>ATOM
      1 C1         -3.6690  -10.9520   36.2044 C.ar      1 UNK        -0.1150 
      2 C2         -4.1662  -10.4015   35.0074 C.ar      1 UNK        -0.1150 
      3 C3         -4.1493  -10.4889   37.4455 C.ar      1 UNK        -0.1150 
      4 C4         -5.1421   -9.3871   35.0536 C.ar      1 UNK        -0.1150 
      5 C5         -7.5553   -5.6865   38.6600 C.ar      1 UNK        -0.1150 
      6 C6         -6.4292   -3.1732   38.2080 C.ar      1 UNK        -0.1150 
      7 C7         -6.5786   -5.1968   39.5532 C.ar      1 UNK        -0.1150 
      8 C8         -5.1329   -9.4765   37.4971 C.ar      1 UNK        -0.0418 
      9 C9         -6.0226   -3.9137   39.3349 C.ar      1 UNK        -0.1150 
     10 C10        -7.9795   -4.9398   37.5310 C.ar      1 UNK         0.0850 
     11 C11        -7.3806   -3.6673   37.2944 C.ar      1 UNK         0.0850 
     12 C12        -5.6227   -8.9242   36.2932 C.ar      1 UNK         0.2200 
     13 C13        -6.1815   -6.0386   40.7352 C.2       1 UNK         0.6150 
     14 C14        -5.2072   -8.1580   41.5514 C.3       1 UNK        -0.0500 
     15 C15        -4.9558   -7.6281   39.2115 C.3       1 UNK        -0.0500 
     16 C16        -5.8963   -9.4744   41.1611 C.3       1 UNK         0.1400 
     17 C17        -5.6402   -8.9574   38.8341 C.3       1 UNK         0.2118 
     18 C18        -4.9881   -3.3148   40.2762 C.3       1 UNK        -0.0650 
     19 C19        -9.6451   -6.6082   36.9919 C.3       1 UNK         0.1100 
     20 C20        -8.2907   -3.3112   35.0741 C.3       1 UNK         0.1100 
     21 N21        -5.4867   -7.1764   40.5022 N.am      1 UNK        -0.1400 
     22 O22        -6.5126   -5.6788   41.8640 O.2       1 UNK        -0.5000 
     23 O23        -5.4147   -9.8991   39.8878 O.3       1 UNK        -0.4000 
     24 O24        -8.9602   -5.4042   36.6766 O.3       1 UNK        -0.2850 
     25 O25        -7.6530   -2.8160   36.2409 O.3       1 UNK        -0.2850 
     26 F26        -6.5546   -7.9427   36.3218 F         1 UNK        -0.2200 
     27 H27        -2.9187  -11.7293   36.1725 H         1 UNK         0.1150 
     28 H28        -3.7982  -10.7550   34.0548 H         1 UNK         0.1150 
     29 H29        -3.7620  -10.9134   38.3606 H         1 UNK         0.1150 
     30 H30        -5.5246   -8.9580   34.1393 H         1 UNK         0.1150 
     31 H31        -7.9777   -6.6555   38.8735 H         1 UNK         0.1150 
     32 H32        -6.0028   -2.1979   38.0243 H         1 UNK         0.1150 
     33 H33        -5.5572   -7.8391   42.5347 H         1 UNK         0.0600 
     34 H34        -4.1302   -8.3026   41.6429 H         1 UNK         0.0600 
     35 H35        -3.8787   -7.7754   39.2997 H         1 UNK         0.0600 
     36 H36        -5.0842   -6.8965   38.4138 H         1 UNK         0.0600 
     37 H37        -5.6792  -10.2482   41.8979 H         1 UNK         0.0300 
     38 H38        -6.9807   -9.3550   41.1325 H         1 UNK         0.0300 
     39 H39        -6.7170   -8.8049   38.7406 H         1 UNK         0.0300 
     40 H40        -5.4022   -3.2053   41.2794 H         1 UNK         0.0600 
     41 H41        -4.1044   -3.9507   40.3337 H         1 UNK         0.0600 
     42 H42        -4.6671   -2.3277   39.9421 H         1 UNK         0.0600 
     43 H43       -10.4133   -6.7888   36.2402 H         1 UNK         0.0300 
     44 H44       -10.1430   -6.5428   37.9603 H         1 UNK         0.0300 
     45 H45        -8.9745   -7.4677   36.9860 H         1 UNK         0.0300 
     46 H46        -8.1818   -2.5804   34.2733 H         1 UNK         0.0300 
     47 H47        -9.3593   -3.4540   35.2368 H         1 UNK         0.0300 
     48 H48        -7.8406   -4.2428   34.7280 H         1 UNK         0.0300 
@<TRIPOS>BOND
     1    1    2 ar   
     2    1    3 ar   
     3    1   27 1    
     4    2    4 ar   
     5    2   28 1    
     6    3    8 ar   
     7    3   29 1    
     8    4   12 ar   
     9    4   30 1    
    10    5    7 ar   
    11    5   10 ar   
    12    5   31 1    
    13    6    9 ar   
    14    6   11 ar   
    15    6   32 1    
    16    7    9 ar   
    17    7   13 1    
    18    8   12 ar   
    19    8   17 1    
    20    9   18 1    
    21   10   11 ar   
    22   10   24 1    
    23   11   25 1    
    24   12   26 1    
    25   13   21 am   BACKBONE|DICT|INTERRES
    26   13   22 2    
    27   14   16 1    
    28   14   21 1    
    29   14   33 1    
    30   14   34 1    
    31   15   17 1    
    32   15   21 1    
    33   15   35 1    
    34   15   36 1    
    35   16   23 1    
    36   16   37 1    
    37   16   38 1    
    38   17   23 1    
    39   17   39 1    
    40   18   40 1    
    41   18   41 1    
    42   18   42 1    
    43   19   24 1    
    44   19   43 1    
    45   19   44 1    
    46   19   45 1    
    47   20   25 1    
    48   20   46 1    
    49   20   47 1    
    50   20   48 1    
@<TRIPOS>SUBSTRUCTURE
     1 UNK         1 GROUP             0       ****    0 ROOT    
@<TRIPOS>MOLECULE
ZINC87272403_80
48   50    1
SMALL
USER_CHARGES


@<TRIPOS>ATOM
      1 C1         -3.9139  -10.9133   36.1145 C.ar      1 UNK        -0.1150 
      2 C2         -4.3365  -10.4744   37.3850 C.ar      1 UNK        -0.1150 
      3 C3         -4.3516  -10.2417   34.9561 C.ar      1 UNK        -0.1150 
      4 C4         -7.5149   -5.7296   38.6922 C.ar      1 UNK        -0.1150 
      5 C5         -5.6317   -8.6933   36.3372 C.ar      1 UNK        -0.1150 
      6 C6         -6.4332   -3.2069   38.1966 C.ar      1 UNK        -0.1150 
      7 C7         -6.5662   -5.1972   39.5906 C.ar      1 UNK        -0.1150 
      8 C8         -5.2018   -9.3647   37.5022 C.ar      1 UNK        -0.0418 
      9 C9         -6.0337   -3.9086   39.3506 C.ar      1 UNK        -0.1150 
     10 C10        -7.9176   -5.0318   37.5256 C.ar      1 UNK         0.0850 
     11 C11        -7.3472   -3.7492   37.2715 C.ar      1 UNK         0.0850 
     12 C12        -5.2094   -9.1316   35.0685 C.ar      1 UNK         0.2200 
     13 C13        -6.1573   -6.0138   40.7865 C.2       1 UNK         0.6150 
     14 C14        -5.1873   -8.1409   41.5971 C.3       1 UNK        -0.0500 
     15 C15        -4.9059   -7.5860   39.2717 C.3       1 UNK        -0.0500 
     16 C16        -5.9079   -9.4348   41.1804 C.3       1 UNK         0.1400 
     17 C17        -5.6557   -8.8683   38.8646 C.3       1 UNK         0.2118 
     18 C18        -5.0299   -3.2648   40.2954 C.3       1 UNK        -0.0650 
     19 C19        -9.4488   -6.8117   36.9379 C.3       1 UNK         0.1100 
     20 C20        -8.2538   -3.4539   35.0369 C.3       1 UNK         0.1100 
     21 N21        -5.4385   -7.1383   40.5618 N.am      1 UNK        -0.1400 
     22 O22        -6.5067   -5.6552   41.9097 O.2       1 UNK        -0.5000 
     23 O23        -5.4552   -9.8442   39.8895 O.3       1 UNK        -0.4000 
     24 O24        -8.8449   -5.5587   36.6486 O.3       1 UNK        -0.2850 
     25 O25        -7.6070   -2.9329   36.1874 O.3       1 UNK        -0.2850 
     26 F26        -5.6274   -8.4839   33.9564 F         1 UNK        -0.2200 
     27 H27        -3.2542  -11.7646   36.0288 H         1 UNK         0.1150 
     28 H28        -3.9959  -10.9931   38.2704 H         1 UNK         0.1150 
     29 H29        -4.0307  -10.5733   33.9795 H         1 UNK         0.1150 
     30 H30        -7.9284   -6.6963   38.9300 H         1 UNK         0.1150 
     31 H31        -6.2849   -7.8359   36.4081 H         1 UNK         0.1150 
     32 H32        -6.0254   -2.2267   37.9968 H         1 UNK         0.1150 
     33 H33        -5.5336   -7.8251   42.5829 H         1 UNK         0.0600 
     34 H34        -4.1146   -8.3143   41.6908 H         1 UNK         0.0600 
     35 H35        -3.8395   -7.7936   39.3708 H         1 UNK         0.0600 
     36 H36        -4.9795   -6.8294   38.4907 H         1 UNK         0.0600 
     37 H37        -5.7017  -10.2301   41.8971 H         1 UNK         0.0300 
     38 H38        -6.9896   -9.2905   41.1675 H         1 UNK         0.0300 
     39 H39        -6.7262   -8.6704   38.7913 H         1 UNK         0.0300 
     40 H40        -5.4672   -3.1337   41.2862 H         1 UNK         0.0600 
     41 H41        -4.1367   -3.8829   40.3901 H         1 UNK         0.0600 
     42 H42        -4.7185   -2.2826   39.9388 H         1 UNK         0.0600 
     43 H43       -10.1611   -7.0556   36.1496 H         1 UNK         0.0300 
     44 H44        -9.9995   -6.7822   37.8790 H         1 UNK         0.0300 
     45 H45        -8.7114   -7.6146   36.9713 H         1 UNK         0.0300 
     46 H46        -8.1725   -2.7300   34.2263 H         1 UNK         0.0300 
     47 H47        -9.3166   -3.6169   35.2179 H         1 UNK         0.0300 
     48 H48        -7.7892   -4.3790   34.6932 H         1 UNK         0.0300 
@<TRIPOS>BOND
     1    1    2 ar   
     2    1    3 ar   
     3    1   27 1    
     4    2    8 ar   
     5    2   28 1    
     6    3   12 ar   
     7    3   29 1    
     8    4    7 ar   
     9    4   10 ar   
    10    4   30 1    
    11    5    8 ar   
    12    5   12 ar   
    13    5   31 1    
    14    6    9 ar   
    15    6   11 ar   
    16    6   32 1    
    17    7    9 ar   
    18    7   13 1    
    19    8   17 1    
    20    9   18 1    
    21   10   11 ar   
    22   10   24 1    
    23   11   25 1    
    24   12   26 1    
    25   13   21 am   BACKBONE|DICT|INTERRES
    26   13   22 2    
    27   14   16 1    
    28   14   21 1    
    29   14   33 1    
    30   14   34 1    
    31   15   17 1    
    32   15   21 1    
    33   15   35 1    
    34   15   36 1    
    35   16   23 1    
    36   16   37 1    
    37   16   38 1    
    38   17   23 1    
    39   17   39 1    
    40   18   40 1    
    41   18   41 1    
    42   18   42 1    
    43   19   24 1    
    44   19   43 1    
    45   19   44 1    
    46   19   45 1    
    47   20   25 1    
    48   20   46 1    
    49   20   47 1    
    50   20   48 1    
@<TRIPOS>SUBSTRUCTURE
     1 UNK         1 GROUP             0       ****    0 ROOT    
@<TRIPOS>MOLECULE
ZINC87297817_115
52   54    1
SMALL
USER_CHARGES


@<TRIPOS>ATOM
      1 C1        -10.2176  -21.8546   36.1080 C.ar      1 UNK        -0.1150 
      2 C2        -11.3688  -22.5284   36.5566 C.ar      1 UNK        -0.1150 
      3 C3         -9.9153  -20.5764   36.6128 C.ar      1 UNK        -0.1150 
      4 C4        -12.2163  -21.9255   37.5070 C.ar      1 UNK        -0.1150 
      5 C5        -10.7652  -19.9737   37.5604 C.ar      1 UNK        -0.1150 
      6 C6        -16.6899  -14.8718   38.5629 C.ar      1 UNK        -0.1150 
      7 C7        -15.8016  -12.2557   38.2010 C.ar      1 UNK        -0.1150 
      8 C8        -15.4194  -14.5108   39.0587 C.ar      1 UNK        -0.1150 
      9 C9        -14.9733  -13.1773   38.8748 C.ar      1 UNK        -0.1150 
     10 C10       -11.9251  -20.6380   38.0176 C.ar      1 UNK         0.2100 
     11 C11       -17.5222  -13.9614   37.8853 C.ar      1 UNK         0.0850 
     12 C12       -17.0776  -12.6191   37.6976 C.ar      1 UNK         0.0850 
     13 C13       -14.6033  -15.5438   39.7889 C.2       1 UNK         0.6150 
     14 C14       -14.0749  -20.0482   41.0390 C.3       1 UNK        -0.1200 
     15 C15       -14.7801  -18.7516   40.6132 C.3       1 UNK        -0.1200 
     16 C16       -13.5920  -20.8426   39.8162 C.3       1 UNK         0.0900 
     17 C17       -13.3504  -18.7465   38.5132 C.3       1 UNK         0.0900 
     18 C18       -13.8600  -17.9122   39.7046 C.3       1 UNK         0.1400 
     19 C19       -13.6165  -12.6989   39.3743 C.3       1 UNK        -0.0650 
     20 C20       -19.6938  -13.7110   36.8118 C.3       1 UNK         0.1100 
     21 C21       -17.4789  -10.3526   36.9560 C.3       1 UNK         0.1100 
     22 N22       -12.7542  -20.0033   38.9618 N.pl3     1 UNK        -0.6300 
     23 N23       -14.5765  -16.7475   39.2053 N.am      1 UNK        -0.5000 
     24 O24       -13.9911  -15.2796   40.8213 O.2       1 UNK        -0.5000 
     25 O25       -18.7228  -14.5074   37.4706 O.3       1 UNK        -0.2850 
     26 O26       -17.8821  -11.7121   37.0361 O.3       1 UNK        -0.2850 
     27 H27        -9.5666  -22.3185   35.3806 H         1 UNK         0.1150 
     28 H28       -11.6043  -23.5096   36.1715 H         1 UNK         0.1150 
     29 H29        -9.0291  -20.0576   36.2780 H         1 UNK         0.1150 
     30 H30       -13.0963  -22.4633   37.8239 H         1 UNK         0.1150 
     31 H31       -10.5119  -18.9989   37.9501 H         1 UNK         0.1150 
     32 H32       -17.0596  -15.8752   38.7152 H         1 UNK         0.1150 
     33 H33       -15.4260  -11.2525   38.0779 H         1 UNK         0.1150 
     34 H34       -13.2213  -19.8067   41.6742 H         1 UNK         0.0600 
     35 H35       -14.7456  -20.6607   41.6419 H         1 UNK         0.0600 
     36 H36       -15.7030  -18.9987   40.0873 H         1 UNK         0.0600 
     37 H37       -15.0641  -18.1771   41.4960 H         1 UNK         0.0600 
     38 H38       -13.0306  -21.7169   40.1505 H         1 UNK         0.0600 
     39 H39       -14.4491  -21.2055   39.2467 H         1 UNK         0.0600 
     40 H40       -14.1732  -18.9832   37.8369 H         1 UNK         0.0600 
     41 H41       -12.6360  -18.1555   37.9389 H         1 UNK         0.0600 
     42 H42       -12.9921  -17.5904   40.2853 H         1 UNK         0.0600 
     43 H43       -13.6170  -12.6305   40.4628 H         1 UNK         0.0600 
     44 H44       -12.8249  -13.3862   39.0741 H         1 UNK         0.0600 
     45 H45       -13.3636  -11.7154   38.9782 H         1 UNK         0.0600 
     46 H46       -19.3232  -13.3352   35.8575 H         1 UNK         0.0300 
     47 H47       -20.0246  -12.8813   37.4374 H         1 UNK         0.0300 
     48 H48       -20.5693  -14.3239   36.5991 H         1 UNK         0.0300 
     49 H49       -17.3361   -9.9185   37.9466 H         1 UNK         0.0300 
     50 H50       -18.2584   -9.7776   36.4566 H         1 UNK         0.0300 
     51 H51       -16.5645  -10.2406   36.3722 H         1 UNK         0.0300 
     52 H52       -15.0848  -16.8422   38.3413 H         1 UNK         0.3000 
@<TRIPOS>BOND
     1    1    2 ar   
     2    1    3 ar   
     3    1   27 1    
     4    2    4 ar   
     5    2   28 1    
     6    3    5 ar   
     7    3   29 1    
     8    4   10 ar   
     9    4   30 1    
    10    5   10 ar   
    11    5   31 1    
    12    6    8 ar   
    13    6   11 ar   
    14    6   32 1    
    15    7    9 ar   
    16    7   12 ar   
    17    7   33 1    
    18    8    9 ar   
    19    8   13 1    
    20    9   19 1    
    21   10   22 1    
    22   11   12 ar   
    23   11   25 1    
    24   12   26 1    
    25   13   23 am   BACKBONE|DICT|INTERRES
    26   13   24 2    
    27   14   15 1    
    28   14   16 1    
    29   14   34 1    
    30   14   35 1    
    31   15   18 1    
    32   15   36 1    
    33   15   37 1    
    34   16   22 1    
    35   16   38 1    
    36   16   39 1    
    37   17   18 1    
    38   17   22 1    
    39   17   40 1    
    40   17   41 1    
    41   18   23 1    
    42   18   42 1    
    43   19   43 1    
    44   19   44 1    
    45   19   45 1    
    46   20   25 1    
    47   20   46 1    
    48   20   47 1    
    49   20   48 1    
    50   21   26 1    
    51   21   49 1    
    52   21   50 1    
    53   21   51 1    
    54   23   52 1    
@<TRIPOS>SUBSTRUCTURE
     1 UNK         1 GROUP             0       ****    0 ROOT    
@<TRIPOS>MOLECULE
ZINC87316169_25
50   52    1
SMALL
USER_CHARGES


@<TRIPOS>ATOM
      1 C1         -4.8155   -9.0387   36.2704 C.ar      1 UNK        -0.1150 
      2 C2         -3.6304  -10.6699   37.6371 C.ar      1 UNK        -0.1150 
      3 C3         -4.0562   -9.4280   35.1495 C.ar      1 UNK        -0.1150 
      4 C4         -2.8723  -11.0581   36.5148 C.ar      1 UNK        -0.1150 
      5 C5         -6.6935   -4.7298   38.8885 C.ar      1 UNK        -0.1150 
      6 C6         -9.4145   -4.4740   38.3415 C.ar      1 UNK        -0.1150 
      7 C7         -7.6107   -5.5649   39.5627 C.ar      1 UNK        -0.1150 
      8 C8         -4.6023   -9.6480   37.5291 C.ar      1 UNK        -0.1150 
      9 C9         -8.9942   -5.4237   39.2927 C.ar      1 UNK        -0.1150 
     10 C10        -7.1086   -3.7787   37.9217 C.ar      1 UNK         0.0850 
     11 C11        -8.5036   -3.6513   37.6508 C.ar      1 UNK         0.0850 
     12 C12        -3.0829  -10.4357   35.2715 C.ar      1 UNK         0.2200 
     13 C13        -7.0945   -6.5566   40.5749 C.2       1 UNK         0.6150 
     14 C14        -4.7394   -9.3745   40.0975 C.3       1 UNK        -0.1200 
     15 C15        -5.8807   -7.7701   38.7556 C.3       1 UNK        -0.0500 
     16 C16        -5.4325   -9.2350   38.7444 C.3       1 UNK         0.0550 
     17 C17        -5.5268   -8.4451   41.0319 C.3       1 UNK         0.0100 
     18 C18       -10.0466   -6.2734   39.9906 C.3       1 UNK        -0.0650 
     19 C19        -4.6253   -7.8102   42.1081 C.3       1 UNK        -0.1800 
     20 C20        -4.8127   -3.1244   37.5243 C.3       1 UNK         0.1100 
     21 C21        -8.3369   -1.7859   36.0965 C.3       1 UNK         0.1100 
     22 N22        -6.1703   -7.4552   40.1567 N.am      1 UNK        -0.1400 
     23 O23        -7.5119   -6.5208   41.7319 O.2       1 UNK        -0.5000 
     24 O24        -6.1986   -2.9936   37.2410 O.3       1 UNK        -0.2850 
     25 O25        -9.0989   -2.7865   36.7518 O.3       1 UNK        -0.2850 
     26 F26        -2.3535  -10.8085   34.1942 F         1 UNK        -0.2200 
     27 H27        -5.5634   -8.2698   36.1457 H         1 UNK         0.1150 
     28 H28        -3.4558  -11.1697   38.5781 H         1 UNK         0.1150 
     29 H29        -4.2198   -8.9585   34.1909 H         1 UNK         0.1150 
     30 H30        -2.1289  -11.8363   36.6026 H         1 UNK         0.1150 
     31 H31        -5.6507   -4.8449   39.1381 H         1 UNK         0.1150 
     32 H32       -10.4673   -4.3611   38.1270 H         1 UNK         0.1150 
     33 H33        -4.7096  -10.4037   40.4571 H         1 UNK         0.0600 
     34 H34        -3.7092   -9.0231   40.0140 H         1 UNK         0.0600 
     35 H35        -5.0723   -7.1174   38.4227 H         1 UNK         0.0600 
     36 H36        -6.7372   -7.6182   38.0963 H         1 UNK         0.0600 
     37 H37        -6.3246   -9.8641   38.7542 H         1 UNK         0.0600 
     38 H38        -6.3180   -9.0198   41.5179 H         1 UNK         0.0600 
     39 H39        -9.8207   -7.3351   39.8889 H         1 UNK         0.0600 
     40 H40       -10.0892   -6.0294   41.0528 H         1 UNK         0.0600 
     41 H41       -11.0392   -6.1049   39.5719 H         1 UNK         0.0600 
     42 H42        -3.8600   -7.1727   41.6644 H         1 UNK         0.0600 
     43 H43        -4.1197   -8.5783   42.6940 H         1 UNK         0.0600 
     44 H44        -5.1995   -7.2010   42.8071 H         1 UNK         0.0600 
     45 H45        -4.2517   -2.4345   36.8942 H         1 UNK         0.0300 
     46 H46        -4.4529   -4.1311   37.3073 H         1 UNK         0.0300 
     47 H47        -4.5924   -2.8731   38.5629 H         1 UNK         0.0300 
     48 H48        -9.0086   -1.1469   35.5240 H         1 UNK         0.0300 
     49 H49        -7.6281   -2.2220   35.3920 H         1 UNK         0.0300 
     50 H50        -7.8117   -1.1477   36.8082 H         1 UNK         0.0300 
@<TRIPOS>BOND
     1    1    3 ar   
     2    1    8 ar   
     3    1   27 1    
     4    2    4 ar   
     5    2    8 ar   
     6    2   28 1    
     7    3   12 ar   
     8    3   29 1    
     9    4   12 ar   
    10    4   30 1    
    11    5    7 ar   
    12    5   10 ar   
    13    5   31 1    
    14    6    9 ar   
    15    6   11 ar   
    16    6   32 1    
    17    7    9 ar   
    18    7   13 1    
    19    8   16 1    
    20    9   18 1    
    21   10   11 ar   
    22   10   24 1    
    23   11   25 1    
    24   12   26 1    
    25   13   22 am   BACKBONE|DICT|INTERRES
    26   13   23 2    
    27   14   16 1    
    28   14   17 1    
    29   14   33 1    
    30   14   34 1    
    31   15   16 1    
    32   15   22 1    
    33   15   35 1    
    34   15   36 1    
    35   16   37 1    
    36   17   19 1    
    37   17   22 1    
    38   17   38 1    
    39   18   39 1    
    40   18   40 1    
    41   18   41 1    
    42   19   42 1    
    43   19   43 1    
    44   19   44 1    
    45   20   24 1    
    46   20   45 1    
    47   20   46 1    
    48   20   47 1    
    49   21   25 1    
    50   21   48 1    
    51   21   49 1    
    52   21   50 1    
@<TRIPOS>SUBSTRUCTURE
     1 UNK         1 GROUP             0       ****    0 ROOT    
@<TRIPOS>MOLECULE
ZINC87316605_60
54   56    1
SMALL
USER_CHARGES


@<TRIPOS>ATOM
      1 C1         -4.9250   -9.1351   36.2907 C.ar      1 UNK        -0.1150 
      2 C2         -3.6987  -10.7127   37.6736 C.ar      1 UNK        -0.1150 
      3 C3         -4.1904   -9.5497   35.1627 C.ar      1 UNK        -0.1150 
      4 C4         -2.9653  -11.1263   36.5455 C.ar      1 UNK        -0.1150 
      5 C5         -6.6931   -4.7318   38.8713 C.ar      1 UNK        -0.1150 
      6 C6         -9.4204   -4.4471   38.3672 C.ar      1 UNK        -0.1150 
      7 C7         -7.6095   -5.5481   39.5695 C.ar      1 UNK        -0.1150 
      8 C8         -4.6802   -9.7037   37.5606 C.ar      1 UNK        -0.1150 
      9 C9         -8.9954   -5.3937   39.3196 C.ar      1 UNK        -0.1150 
     10 C10        -3.1973  -10.5522   35.2814 C.ar      1 UNK         0.0850 
     11 C11        -7.1137   -3.7819   37.9056 C.ar      1 UNK         0.0850 
     12 C12        -8.5111   -3.6372   37.6597 C.ar      1 UNK         0.0850 
     13 C13        -7.0899   -6.5314   40.5882 C.2       1 UNK         0.6150 
     14 C14        -4.7704   -9.3795   40.1249 C.3       1 UNK        -0.1200 
     15 C15        -5.9230   -7.7926   38.7709 C.3       1 UNK        -0.0500 
     16 C16        -5.4861   -9.2609   38.7815 C.3       1 UNK         0.0550 
     17 C17        -5.5323   -8.4244   41.0542 C.3       1 UNK         0.0100 
     18 C18       -10.0460   -6.2248   40.0422 C.3       1 UNK        -0.0650 
     19 C19        -4.6056   -7.7765   42.1014 C.3       1 UNK        -0.1800 
     20 C20        -2.6522  -10.4628   32.9464 C.3       1 UNK         0.1100 
     21 C21        -4.8191   -3.1567   37.4608 C.3       1 UNK         0.1100 
     22 C22        -8.3610   -1.7068   36.1904 C.3       1 UNK         0.1100 
     23 N23        -6.1818   -7.4462   40.1707 N.am      1 UNK        -0.1400 
     24 O24        -7.4892   -6.4728   41.7507 O.2       1 UNK        -0.5000 
     25 O25        -2.4324  -11.0177   34.2346 O.3       1 UNK        -0.2850 
     26 O26        -6.2078   -3.0162   37.1980 O.3       1 UNK        -0.2850 
     27 O27        -9.1067   -2.7677   36.7658 O.3       1 UNK        -0.2850 
     28 H28        -5.6818   -8.3756   36.1629 H         1 UNK         0.1150 
     29 H29        -3.4965  -11.1846   38.6232 H         1 UNK         0.1150 
     30 H30        -4.4109   -9.0835   34.2149 H         1 UNK         0.1150 
     31 H31        -2.2154  -11.8969   36.6478 H         1 UNK         0.1150 
     32 H32        -5.6472   -4.8594   39.1019 H         1 UNK         0.1150 
     33 H33       -10.4749   -4.3237   38.1687 H         1 UNK         0.1150 
     34 H34        -4.7428  -10.4018   40.5039 H         1 UNK         0.0600 
     35 H35        -3.7391   -9.0389   40.0154 H         1 UNK         0.0600 
     36 H36        -5.1172   -7.1539   38.4066 H         1 UNK         0.0600 
     37 H37        -6.7922   -7.6486   38.1267 H         1 UNK         0.0600 
     38 H38        -6.3822   -9.8828   38.8190 H         1 UNK         0.0600 
     39 H39        -6.3200   -8.9815   41.5659 H         1 UNK         0.0600 
     40 H40        -9.8380   -7.2903   39.9398 H         1 UNK         0.0600 
     41 H41       -10.0631   -5.9760   41.1041 H         1 UNK         0.0600 
     42 H42       -11.0445   -6.0428   39.6440 H         1 UNK         0.0600 
     43 H43        -3.8391   -7.1598   41.6313 H         1 UNK         0.0600 
     44 H44        -4.1012   -8.5377   42.6971 H         1 UNK         0.0600 
     45 H45        -5.1602   -7.1434   42.7949 H         1 UNK         0.0600 
     46 H46        -1.9777  -10.9343   32.2318 H         1 UNK         0.0300 
     47 H47        -2.4486   -9.3912   32.9343 H         1 UNK         0.0300 
     48 H48        -3.6723  -10.6420   32.6043 H         1 UNK         0.0300 
     49 H49        -4.2633   -2.4729   36.8194 H         1 UNK         0.0300 
     50 H50        -4.4700   -4.1667   37.2422 H         1 UNK         0.0300 
     51 H51        -4.5805   -2.9033   38.4946 H         1 UNK         0.0300 
     52 H52        -9.0443   -1.0308   35.6770 H         1 UNK         0.0300 
     53 H53        -7.6526   -2.0747   35.4478 H         1 UNK         0.0300 
     54 H54        -7.8360   -1.1232   36.9478 H         1 UNK         0.0300 
@<TRIPOS>BOND
     1    1    3 ar   
     2    1    8 ar   
     3    1   28 1    
     4    2    4 ar   
     5    2    8 ar   
     6    2   29 1    
     7    3   10 ar   
     8    3   30 1    
     9    4   10 ar   
    10    4   31 1    
    11    5    7 ar   
    12    5   11 ar   
    13    5   32 1    
    14    6    9 ar   
    15    6   12 ar   
    16    6   33 1    
    17    7    9 ar   
    18    7   13 1    
    19    8   16 1    
    20    9   18 1    
    21   10   25 1    
    22   11   12 ar   
    23   11   26 1    
    24   12   27 1    
    25   13   23 am   BACKBONE|DICT|INTERRES
    26   13   24 2    
    27   14   16 1    
    28   14   17 1    
    29   14   34 1    
    30   14   35 1    
    31   15   16 1    
    32   15   23 1    
    33   15   36 1    
    34   15   37 1    
    35   16   38 1    
    36   17   19 1    
    37   17   23 1    
    38   17   39 1    
    39   18   40 1    
    40   18   41 1    
    41   18   42 1    
    42   19   43 1    
    43   19   44 1    
    44   19   45 1    
    45   20   25 1    
    46   20   46 1    
    47   20   47 1    
    48   20   48 1    
    49   21   26 1    
    50   21   49 1    
    51   21   50 1    
    52   21   51 1    
    53   22   27 1    
    54   22   52 1    
    55   22   53 1    
    56   22   54 1    
@<TRIPOS>SUBSTRUCTURE
     1 UNK         1 GROUP             0       ****    0 ROOT    
@<TRIPOS>MOLECULE
ZINC87335992_97
55   57    1
SMALL
USER_CHARGES


@<TRIPOS>ATOM
      1 C1        -10.4585  -22.7675   37.4646 C.ar      1 UNK        -0.1150 
      2 C2        -10.6789  -21.0704   35.7366 C.ar      1 UNK        -0.1150 
      3 C3        -11.3270  -22.0318   38.2939 C.ar      1 UNK        -0.1150 
      4 C4        -11.5466  -20.3364   36.5684 C.ar      1 UNK        -0.1150 
      5 C5        -16.4839  -14.9184   38.6808 C.ar      1 UNK        -0.1150 
      6 C6        -15.6508  -12.3152   38.1412 C.ar      1 UNK        -0.1150 
      7 C7        -15.1784  -14.5323   39.0519 C.ar      1 UNK        -0.1150 
      8 C8        -10.1300  -22.2879   36.1820 C.ar      1 UNK        -0.1150 
      9 C9        -14.7620  -13.2036   38.7817 C.ar      1 UNK        -0.1150 
     10 C10       -11.8843  -20.8059   37.8611 C.ar      1 UNK         0.2100 
     11 C11       -17.3765  -14.0413   38.0371 C.ar      1 UNK         0.0850 
     12 C12       -16.9592  -12.7066   37.7555 C.ar      1 UNK         0.0850 
     13 C13       -14.2917  -15.5350   39.7415 C.2       1 UNK         0.6150 
     14 C14       -14.9202  -20.0301   39.9538 C.3       1 UNK        -0.1200 
     15 C15       -14.3853  -18.7637   40.6324 C.3       1 UNK        -0.1200 
     16 C16       -13.7567  -20.8873   39.4290 C.3       1 UNK         0.0900 
     17 C17       -13.0434  -18.6860   38.4183 C.3       1 UNK         0.0900 
     18 C18       -13.5406  -17.9063   39.6596 C.3       1 UNK         0.1400 
     19 C19        -9.1985  -23.0749   35.2838 C.3       1 UNK        -0.0650 
     20 C20       -13.3739  -12.6968   39.1504 C.3       1 UNK        -0.0650 
     21 C21       -19.6256  -13.8523   37.1220 C.3       1 UNK         0.1100 
     22 C22       -17.4043  -10.4988   36.8715 C.3       1 UNK         0.1100 
     23 N23       -12.7584  -20.0913   38.7089 N.pl3     1 UNK        -0.6300 
     24 N24       -14.3182  -16.7608   39.2057 N.am      1 UNK        -0.5000 
     25 O25       -13.5794  -15.2296   40.6953 O.2       1 UNK        -0.5000 
     26 O26       -18.6020  -14.6109   37.7449 O.3       1 UNK        -0.2850 
     27 O27       -17.8218  -11.8334   37.1215 O.3       1 UNK        -0.2850 
     28 H28       -10.0459  -23.6996   37.8223 H         1 UNK         0.1150 
     29 H29       -10.4404  -20.6936   34.7526 H         1 UNK         0.1150 
     30 H30       -11.5483  -22.4175   39.2771 H         1 UNK         0.1150 
     31 H31       -11.9563  -19.4164   36.1826 H         1 UNK         0.1150 
     32 H32       -16.8314  -15.9167   38.9035 H         1 UNK         0.1150 
     33 H33       -15.2963  -11.3151   37.9507 H         1 UNK         0.1150 
     34 H34       -15.5213  -20.6108   40.6543 H         1 UNK         0.0600 
     35 H35       -15.5836  -19.7561   39.1327 H         1 UNK         0.0600 
     36 H36       -15.1987  -18.1878   41.0753 H         1 UNK         0.0600 
     37 H37       -13.7521  -19.0666   41.4676 H         1 UNK         0.0600 
     38 H38       -13.2670  -21.3678   40.2771 H         1 UNK         0.0600 
     39 H39       -14.1402  -21.6847   38.7899 H         1 UNK         0.0600 
     40 H40       -13.7932  -18.6616   37.6259 H         1 UNK         0.0600 
     41 H41       -12.1545  -18.1856   38.0308 H         1 UNK         0.0600 
     42 H42       -12.6620  -17.5559   40.2066 H         1 UNK         0.0600 
     43 H43        -9.7729  -23.6388   34.5485 H         1 UNK         0.0600 
     44 H44        -8.5202  -22.4061   34.7529 H         1 UNK         0.0600 
     45 H45        -8.5952  -23.7774   35.8595 H         1 UNK         0.0600 
     46 H46       -13.2750  -12.6178   40.2337 H         1 UNK         0.0600 
     47 H47       -12.6015  -13.3735   38.7836 H         1 UNK         0.0600 
     48 H48       -13.1765  -11.7122   38.7266 H         1 UNK         0.0600 
     49 H49       -19.3276  -13.5179   36.1277 H         1 UNK         0.0300 
     50 H50       -19.9195  -12.9971   37.7315 H         1 UNK         0.0300 
     51 H51       -20.5078  -14.4805   36.9998 H         1 UNK         0.0300 
     52 H52       -18.2147   -9.9566   36.3844 H         1 UNK         0.0300 
     53 H53       -16.5418  -10.4679   36.2043 H         1 UNK         0.0300 
     54 H54       -17.1695   -9.9728   37.7978 H         1 UNK         0.0300 
     55 H55       -14.9194  -16.8925   38.4087 H         1 UNK         0.3000 
@<TRIPOS>BOND
     1    1    3 ar   
     2    1    8 ar   
     3    1   28 1    
     4    2    4 ar   
     5    2    8 ar   
     6    2   29 1    
     7    3   10 ar   
     8    3   30 1    
     9    4   10 ar   
    10    4   31 1    
    11    5    7 ar   
    12    5   11 ar   
    13    5   32 1    
    14    6    9 ar   
    15    6   12 ar   
    16    6   33 1    
    17    7    9 ar   
    18    7   13 1    
    19    8   19 1    
    20    9   20 1    
    21   10   23 1    
    22   11   12 ar   
    23   11   26 1    
    24   12   27 1    
    25   13   24 am   BACKBONE|DICT|INTERRES
    26   13   25 2    
    27   14   15 1    
    28   14   16 1    
    29   14   34 1    
    30   14   35 1    
    31   15   18 1    
    32   15   36 1    
    33   15   37 1    
    34   16   23 1    
    35   16   38 1    
    36   16   39 1    
    37   17   18 1    
    38   17   23 1    
    39   17   40 1    
    40   17   41 1    
    41   18   24 1    
    42   18   42 1    
    43   19   43 1    
    44   19   44 1    
    45   19   45 1    
    46   20   46 1    
    47   20   47 1    
    48   20   48 1    
    49   21   26 1    
    50   21   49 1    
    51   21   50 1    
    52   21   51 1    
    53   22   27 1    
    54   22   52 1    
    55   22   53 1    
    56   22   54 1    
    57   24   55 1    
@<TRIPOS>SUBSTRUCTURE
     1 UNK         1 GROUP             0       ****    0 ROOT    
@<TRIPOS>MOLECULE
ZINC87391202_19
51   53    1
SMALL
USER_CHARGES


@<TRIPOS>ATOM
      1 C1         -3.3919   -9.2294   35.6260 C.ar      1 UNK        -0.1150 
      2 C2         -4.1404  -10.2197   34.9677 C.ar      1 UNK        -0.1150 
      3 C3         -3.7654   -8.8051   36.9147 C.ar      1 UNK        -0.1150 
      4 C4         -5.2554  -10.7922   35.6049 C.ar      1 UNK        -0.1150 
      5 C5         -7.5774   -6.0162   38.7195 C.ar      1 UNK        -0.1150 
      6 C6         -7.1537   -3.2740   38.4717 C.ar      1 UNK        -0.1150 
      7 C7         -6.8259   -5.3469   39.7090 C.ar      1 UNK        -0.1150 
      8 C8         -4.8951   -9.3597   37.5631 C.ar      1 UNK        -0.0418 
      9 C9         -5.6349  -10.3748   36.8987 C.ar      1 UNK        -0.1150 
     10 C10        -6.6273   -3.9499   39.5902 C.ar      1 UNK        -0.1150 
     11 C11        -8.0846   -5.3492   37.5766 C.ar      1 UNK         0.0850 
     12 C12        -7.8673   -3.9442   37.4586 C.ar      1 UNK         0.0850 
     13 C13        -6.2913   -6.1291   40.8816 C.2       1 UNK         0.6150 
     14 C14        -4.9543   -8.0576   41.6730 C.3       1 UNK        -0.0500 
     15 C15        -4.8085   -7.4723   39.3441 C.3       1 UNK        -0.0500 
     16 C16        -5.4047   -9.4724   41.2678 C.3       1 UNK         0.1400 
     17 C17        -5.3188   -8.8772   38.9531 C.3       1 UNK         0.2118 
     18 C18        -6.8340  -11.0411   37.5529 C.3       1 UNK        -0.0650 
     19 C19        -5.8549   -3.1533   40.6318 C.3       1 UNK        -0.0650 
     20 C20        -8.7552   -7.4511   36.5915 C.3       1 UNK         0.1100 
     21 C21        -8.9162   -3.6663   35.2797 C.3       1 UNK         0.1100 
     22 N22        -5.4023   -7.1222   40.6384 N.am      1 UNK        -0.1400 
     23 O23        -6.6818   -5.8516   42.0148 O.2       1 UNK        -0.5000 
     24 O24        -4.9042   -9.7902   39.9688 O.3       1 UNK        -0.4000 
     25 O25        -8.7842   -6.0300   36.6000 O.3       1 UNK        -0.2850 
     26 O26        -8.2880   -3.1229   36.4294 O.3       1 UNK        -0.2850 
     27 H27        -2.5289   -8.7943   35.1429 H         1 UNK         0.1150 
     28 H28        -3.8550  -10.5466   33.9782 H         1 UNK         0.1150 
     29 H29        -3.1644   -8.0467   37.3909 H         1 UNK         0.1150 
     30 H30        -5.8159  -11.5612   35.0930 H         1 UNK         0.1150 
     31 H31        -7.7575   -7.0681   38.8647 H         1 UNK         0.1150 
     32 H32        -7.0052   -2.2087   38.3712 H         1 UNK         0.1150 
     33 H33        -5.3493   -7.8160   42.6613 H         1 UNK         0.0600 
     34 H34        -3.8681   -8.0155   41.7614 H         1 UNK         0.0600 
     35 H35        -3.7235   -7.4739   39.4518 H         1 UNK         0.0600 
     36 H36        -5.0268   -6.7489   38.5593 H         1 UNK         0.0600 
     37 H37        -5.0296  -10.2068   41.9809 H         1 UNK         0.0300 
     38 H38        -6.4933   -9.5496   41.2755 H         1 UNK         0.0300 
     39 H39        -6.4081   -8.8463   38.9522 H         1 UNK         0.0300 
     40 H40        -6.5930  -11.3581   38.5681 H         1 UNK         0.0600 
     41 H41        -7.6801  -10.3555   37.5919 H         1 UNK         0.0600 
     42 H42        -7.1455  -11.9277   37.0000 H         1 UNK         0.0600 
     43 H43        -6.3815   -3.1635   41.5871 H         1 UNK         0.0600 
     44 H44        -4.8594   -3.5718   40.7811 H         1 UNK         0.0600 
     45 H45        -5.7351   -2.1120   40.3312 H         1 UNK         0.0600 
     46 H46        -9.2304   -7.8133   35.6800 H         1 UNK         0.0300 
     47 H47        -9.3076   -7.8667   37.4350 H         1 UNK         0.0300 
     48 H48        -7.7328   -7.8332   36.6013 H         1 UNK         0.0300 
     49 H49        -9.0978   -2.8654   34.5633 H         1 UNK         0.0300 
     50 H50        -9.8834   -4.1072   35.5230 H         1 UNK         0.0300 
     51 H51        -8.2825   -4.4041   34.7862 H         1 UNK         0.0300 
@<TRIPOS>BOND
     1    1    2 ar   
     2    1    3 ar   
     3    1   27 1    
     4    2    4 ar   
     5    2   28 1    
     6    3    8 ar   
     7    3   29 1    
     8    4    9 ar   
     9    4   30 1    
    10    5    7 ar   
    11    5   11 ar   
    12    5   31 1    
    13    6   10 ar   
    14    6   12 ar   
    15    6   32 1    
    16    7   10 ar   
    17    7   13 1    
    18    8    9 ar   
    19    8   17 1    
    20    9   18 1    
    21   10   19 1    
    22   11   12 ar   
    23   11   25 1    
    24   12   26 1    
    25   13   22 am   BACKBONE|DICT|INTERRES
    26   13   23 2    
    27   14   16 1    
    28   14   22 1    
    29   14   33 1    
    30   14   34 1    
    31   15   17 1    
    32   15   22 1    
    33   15   35 1    
    34   15   36 1    
    35   16   24 1    
    36   16   37 1    
    37   16   38 1    
    38   17   24 1    
    39   17   39 1    
    40   18   40 1    
    41   18   41 1    
    42   18   42 1    
    43   19   43 1    
    44   19   44 1    
    45   19   45 1    
    46   20   25 1    
    47   20   46 1    
    48   20   47 1    
    49   20   48 1    
    50   21   26 1    
    51   21   49 1    
    52   21   50 1    
    53   21   51 1    
@<TRIPOS>SUBSTRUCTURE
     1 UNK         1 GROUP             0       ****    0 ROOT    
@<TRIPOS>MOLECULE
ZINC87392705_124
43   45    1
SMALL
USER_CHARGES


@<TRIPOS>ATOM
      1 C1         -4.8181  -12.2869   35.3076 C.ar      1 UNK        -0.1150 
      2 C2         -5.5726  -12.9949   36.2631 C.ar      1 UNK        -0.1150 
      3 C3         -4.3921  -10.9727   35.5807 C.ar      1 UNK        -0.1150 
      4 C4         -5.9005  -12.3890   37.4925 C.ar      1 UNK        -0.1150 
      5 C5         -4.7195  -10.3678   36.8107 C.ar      1 UNK        -0.1150 
      6 C6         -8.0651   -4.4104   39.4056 C.ar      1 UNK        -0.1150 
      7 C7         -8.4072   -5.0959   36.7099 C.ar      1 UNK        -0.1150 
      8 C8         -6.7503  -10.2499   40.9887 C.2       1 UNK        -0.1480 
      9 C9         -5.4742  -11.0722   37.7744 C.ar      1 UNK         0.0000 
     10 C10        -7.5396   -5.6301   38.9225 C.ar      1 UNK         0.0850 
     11 C11        -7.7020   -5.9769   37.5652 C.ar      1 UNK         0.0850 
     12 C12        -8.9439   -3.8805   37.1808 C.ar      1 UNK         0.0850 
     13 C13        -8.7640   -3.5401   38.5493 C.ar      1 UNK         0.2200 
     14 C14        -6.0514   -9.0986   40.7361 C.2       1 UNK         0.1450 
     15 C15        -5.8106  -10.4356   39.0450 C.2       1 UNK         0.5540 
     16 C16        -6.7522   -6.6937   41.0538 C.2       1 UNK         0.5000 
     17 C17        -7.3468   -7.5831   35.8089 C.3       1 UNK         0.1100 
     18 C18       -10.1672   -1.8723   36.6125 C.3       1 UNK         0.1100 
     19 C19        -5.8994   -7.8575   41.5765 C.3       1 UNK        -0.0050 
     20 N20        -5.4473   -9.2310   39.4905 N.2       1 UNK        -0.5900 
     21 N21        -6.8120   -6.5510   39.7194 N.am      1 UNK        -0.3850 
     22 O22        -7.3131   -5.9505   41.8576 O.2       1 UNK        -0.5000 
     23 O23        -6.6078  -11.1024   39.9261 O.3       1 UNK        -0.2570 
     24 O24        -7.1538   -7.1770   37.1557 O.3       1 UNK        -0.2850 
     25 O25        -9.6063   -3.1210   36.2363 O.3       1 UNK        -0.2850 
     26 F26        -9.2439   -2.3869   39.0738 F         1 UNK        -0.2200 
     27 H27        -4.5649  -12.7529   34.3658 H         1 UNK         0.1150 
     28 H28        -5.8991  -14.0036   36.0539 H         1 UNK         0.1150 
     29 H29        -3.8122  -10.4288   34.8488 H         1 UNK         0.1150 
     30 H30        -6.4790  -12.9388   38.2211 H         1 UNK         0.1150 
     31 H31        -4.3914   -9.3591   37.0194 H         1 UNK         0.1150 
     32 H32        -7.9400   -4.1119   40.4348 H         1 UNK         0.1150 
     33 H33        -8.5533   -5.3281   35.6668 H         1 UNK         0.1150 
     34 H34        -7.3618  -10.5930   41.8113 H         1 UNK         0.1810 
     35 H35        -6.8840   -8.5583   35.6573 H         1 UNK         0.0300 
     36 H36        -6.8816   -6.8850   35.1118 H         1 UNK         0.0300 
     37 H37        -8.4064   -7.6820   35.5692 H         1 UNK         0.0300 
     38 H38       -10.6395   -1.4173   35.7419 H         1 UNK         0.0300 
     39 H39        -9.4028   -1.1792   36.9660 H         1 UNK         0.0300 
     40 H40       -10.9383   -1.9911   37.3748 H         1 UNK         0.0300 
     41 H41        -6.1822   -8.0607   42.6098 H         1 UNK         0.0600 
     42 H42        -4.8580   -7.5366   41.6002 H         1 UNK         0.0600 
     43 H43        -6.3493   -7.2908   39.1981 H         1 UNK         0.3000 
@<TRIPOS>BOND
     1    1    2 ar   
     2    1    3 ar   
     3    1   27 1    
     4    2    4 ar   
     5    2   28 1    
     6    3    5 ar   
     7    3   29 1    
     8    4    9 ar   
     9    4   30 1    
    10    5    9 ar   
    11    5   31 1    
    12    6   10 ar   
    13    6   13 ar   
    14    6   32 1    
    15    7   11 ar   
    16    7   12 ar   
    17    7   33 1    
    18    8   14 2    
    19    8   23 1    
    20    8   34 1    
    21    9   15 1    
    22   10   11 ar   
    23   10   21 1    
    24   11   24 1    
    25   12   13 ar   
    26   12   25 1    
    27   13   26 1    
    28   14   19 1    
    29   14   20 1    
    30   15   20 2    
    31   15   23 1    
    32   16   19 1    
    33   16   21 am   BACKBONE|DICT|INTERRES
    34   16   22 2    
    35   17   24 1    
    36   17   35 1    
    37   17   36 1    
    38   17   37 1    
    39   18   25 1    
    40   18   38 1    
    41   18   39 1    
    42   18   40 1    
    43   19   41 1    
    44   19   42 1    
    45   21   43 1    
@<TRIPOS>SUBSTRUCTURE
     1 UNK         1 GROUP             0       ****    0 ROOT    
@<TRIPOS>MOLECULE
ZINC87394307_20
54   56    1
SMALL
USER_CHARGES


@<TRIPOS>ATOM
      1 C1         -3.7837   -8.7622   36.8942 C.ar      1 UNK        -0.1150 
      2 C2         -3.4367   -9.1874   35.5986 C.ar      1 UNK        -0.1150 
      3 C3         -7.5555   -6.0054   38.7264 C.ar      1 UNK        -0.1150 
      4 C4         -5.2845  -10.7686   35.6272 C.ar      1 UNK        -0.1150 
      5 C5         -7.1305   -3.2654   38.4586 C.ar      1 UNK        -0.1150 
      6 C6         -6.8059   -5.3286   39.7123 C.ar      1 UNK        -0.1150 
      7 C7         -4.8916   -9.3252   37.5708 C.ar      1 UNK        -0.0418 
      8 C8         -4.1896  -10.1882   34.9587 C.ar      1 UNK        -0.1150 
      9 C9         -5.6369  -10.3491   36.9278 C.ar      1 UNK        -0.1150 
     10 C10        -6.6083   -3.9326   39.5843 C.ar      1 UNK        -0.1150 
     11 C11        -8.0580   -5.3477   37.5760 C.ar      1 UNK         0.0850 
     12 C12        -7.8397   -3.9436   37.4475 C.ar      1 UNK         0.0850 
     13 C13        -6.2653   -6.1037   40.8869 C.2       1 UNK         0.6150 
     14 C14        -4.8994   -8.0125   41.6793 C.3       1 UNK        -0.0500 
     15 C15        -4.7748   -7.4352   39.3479 C.3       1 UNK        -0.0500 
     16 C16        -5.3447   -9.4317   41.2828 C.3       1 UNK         0.1400 
     17 C17        -5.2904   -8.8403   38.9667 C.3       1 UNK         0.2118 
     18 C18        -3.8122  -10.6404   33.5634 C.3       1 UNK        -0.0650 
     19 C19        -6.8148  -11.0222   37.6133 C.3       1 UNK        -0.0650 
     20 C20        -5.8406   -3.1283   40.6233 C.3       1 UNK        -0.0650 
     21 C21        -8.7170   -7.4578   36.6014 C.3       1 UNK         0.1100 
     22 C22        -8.8912   -3.6819   35.2676 C.3       1 UNK         0.1100 
     23 N23        -5.3609   -7.0833   40.6450 N.am      1 UNK        -0.1400 
     24 O24        -6.6627   -5.8322   42.0190 O.2       1 UNK        -0.5000 
     25 O25        -4.8592   -9.7501   39.9781 O.3       1 UNK        -0.4000 
     26 O26        -8.7523   -6.0368   36.6016 O.3       1 UNK        -0.2850 
     27 O27        -8.2544   -3.1309   36.4090 O.3       1 UNK        -0.2850 
     28 H28        -3.1803   -7.9952   37.3530 H         1 UNK         0.1150 
     29 H29        -2.5887   -8.7419   35.0984 H         1 UNK         0.1150 
     30 H30        -7.7361   -7.0560   38.8789 H         1 UNK         0.1150 
     31 H31        -5.8553  -11.5461   35.1400 H         1 UNK         0.1150 
     32 H32        -6.9811   -2.2011   38.3499 H         1 UNK         0.1150 
     33 H33        -5.2869   -7.7689   42.6700 H         1 UNK         0.0600 
     34 H34        -3.8127   -7.9639   41.7581 H         1 UNK         0.0600 
     35 H35        -3.6886   -7.4380   39.4453 H         1 UNK         0.0600 
     36 H36        -4.9985   -6.7131   38.5633 H         1 UNK         0.0600 
     37 H37        -4.9547  -10.1617   41.9923 H         1 UNK         0.0300 
     38 H38        -6.4326   -9.5169   41.3051 H         1 UNK         0.0300 
     39 H39        -6.3794   -8.8101   38.9833 H         1 UNK         0.0300 
     40 H40        -2.8408  -11.1352   33.5780 H         1 UNK         0.0600 
     41 H41        -4.5445  -11.3391   33.1581 H         1 UNK         0.0600 
     42 H42        -3.7527   -9.7846   32.8903 H         1 UNK         0.0600 
     43 H43        -6.5393  -11.3507   38.6162 H         1 UNK         0.0600 
     44 H44        -7.6585  -10.3367   37.6891 H         1 UNK         0.0600 
     45 H45        -7.1464  -11.9019   37.0614 H         1 UNK         0.0600 
     46 H46        -6.3705   -3.1361   41.5766 H         1 UNK         0.0600 
     47 H47        -4.8441   -3.5428   40.7781 H         1 UNK         0.0600 
     48 H48        -5.7233   -2.0881   40.3182 H         1 UNK         0.0600 
     49 H49        -9.1820   -7.8274   35.6878 H         1 UNK         0.0300 
     50 H50        -9.2759   -7.8707   37.4420 H         1 UNK         0.0300 
     51 H51        -7.6933   -7.8358   36.6231 H         1 UNK         0.0300 
     52 H52        -9.0746   -2.8867   34.5453 H         1 UNK         0.0300 
     53 H53        -9.8583   -4.1177   35.5201 H         1 UNK         0.0300 
     54 H54        -8.2627   -4.4256   34.7762 H         1 UNK         0.0300 
@<TRIPOS>BOND
     1    1    2 ar   
     2    1    7 ar   
     3    1   28 1    
     4    2    8 ar   
     5    2   29 1    
     6    3    6 ar   
     7    3   11 ar   
     8    3   30 1    
     9    4    8 ar   
    10    4    9 ar   
    11    4   31 1    
    12    5   10 ar   
    13    5   12 ar   
    14    5   32 1    
    15    6   10 ar   
    16    6   13 1    
    17    7    9 ar   
    18    7   17 1    
    19    8   18 1    
    20    9   19 1    
    21   10   20 1    
    22   11   12 ar   
    23   11   26 1    
    24   12   27 1    
    25   13   23 am   BACKBONE|DICT|INTERRES
    26   13   24 2    
    27   14   16 1    
    28   14   23 1    
    29   14   33 1    
    30   14   34 1    
    31   15   17 1    
    32   15   23 1    
    33   15   35 1    
    34   15   36 1    
    35   16   25 1    
    36   16   37 1    
    37   16   38 1    
    38   17   25 1    
    39   17   39 1    
    40   18   40 1    
    41   18   41 1    
    42   18   42 1    
    43   19   43 1    
    44   19   44 1    
    45   19   45 1    
    46   20   46 1    
    47   20   47 1    
    48   20   48 1    
    49   21   26 1    
    50   21   49 1    
    51   21   50 1    
    52   21   51 1    
    53   22   27 1    
    54   22   52 1    
    55   22   53 1    
    56   22   54 1    
@<TRIPOS>SUBSTRUCTURE
     1 UNK         1 GROUP             0       ****    0 ROOT    
@<TRIPOS>MOLECULE
ZINC87405906_200
47   48    1
SMALL
USER_CHARGES


@<TRIPOS>ATOM
      1 C1        -12.2645  -20.8289   36.2109 C.ar      1 UNK        -0.1150 
      2 C2        -11.3643  -21.9105   36.1776 C.ar      1 UNK        -0.1150 
      3 C3        -15.3304  -13.8805   39.0236 C.ar      1 UNK        -0.1150 
      4 C4        -16.8882  -15.4898   38.0840 C.ar      1 UNK        -0.1150 
      5 C5        -12.4666  -22.8815   38.1186 C.ar      1 UNK        -0.1150 
      6 C6        -15.6280  -15.2049   38.6507 C.ar      1 UNK        -0.1150 
      7 C7        -13.2739  -20.7654   37.1965 C.ar      1 UNK        -0.1150 
      8 C8        -13.3744  -21.8006   38.1617 C.ar      1 UNK        -0.1150 
      9 C9        -16.2553  -12.8423   38.8108 C.ar      1 UNK         0.0850 
     10 C10       -17.8317  -14.4714   37.8518 C.ar      1 UNK         0.0850 
     11 C11       -17.4988  -13.1260   38.1809 C.ar      1 UNK         0.0850 
     12 C12       -11.4661  -22.9377   37.1314 C.ar      1 UNK         0.2200 
     13 C13       -14.6284  -16.2930   38.9057 C.2       1 UNK         0.6150 
     14 C14       -14.4387  -21.7791   39.2462 C.3       1 UNK        -0.0650 
     15 C15       -16.8417  -10.8060   39.8991 C.3       1 UNK         0.1100 
     16 C16       -20.1934  -14.1309   37.5151 C.3       1 UNK         0.1100 
     17 C17       -17.9511  -11.4139   36.6724 C.3       1 UNK         0.1100 
     18 C18       -14.2218  -19.5758   37.1917 C.3       1 UNK        -0.0050 
     19 C19       -13.6949  -18.4116   38.0435 C.3       1 UNK         0.0800 
     20 N20       -14.6149  -17.2821   38.0056 N.am      1 UNK        -0.5000 
     21 O21       -13.8431  -16.2315   39.8480 O.2       1 UNK        -0.5000 
     22 O22       -15.8688  -11.5841   39.2140 O.3       1 UNK        -0.2850 
     23 O23       -19.0146  -14.8865   37.2757 O.3       1 UNK        -0.2850 
     24 O24       -18.3467  -12.1002   37.8505 O.3       1 UNK        -0.2850 
     25 F25       -10.6027  -23.9797   37.0997 F         1 UNK        -0.2200 
     26 H26       -12.1732  -20.0456   35.4725 H         1 UNK         0.1150 
     27 H27       -10.5942  -21.9567   35.4223 H         1 UNK         0.1150 
     28 H28       -14.3804  -13.6558   39.4884 H         1 UNK         0.1150 
     29 H29       -17.1568  -16.5040   37.8289 H         1 UNK         0.1150 
     30 H30       -12.5277  -23.6800   38.8431 H         1 UNK         0.1150 
     31 H31       -14.2910  -22.5874   39.9632 H         1 UNK         0.0600 
     32 H32       -14.4125  -20.8415   39.8011 H         1 UNK         0.0600 
     33 H33       -15.4307  -21.8991   38.8103 H         1 UNK         0.0600 
     34 H34       -17.5359  -11.4208   40.4744 H         1 UNK         0.0300 
     35 H35       -17.4082  -10.1816   39.2091 H         1 UNK         0.0300 
     36 H36       -16.3370  -10.1399   40.5986 H         1 UNK         0.0300 
     37 H37       -20.2720  -13.2904   36.8257 H         1 UNK         0.0300 
     38 H38       -20.2476  -13.7662   38.5422 H         1 UNK         0.0300 
     39 H39       -21.0629  -14.7664   37.3486 H         1 UNK         0.0300 
     40 H40       -18.6723  -10.6278   36.4488 H         1 UNK         0.0300 
     41 H41       -17.9175  -12.0917   35.8181 H         1 UNK         0.0300 
     42 H42       -16.9714  -10.9473   36.7842 H         1 UNK         0.0300 
     43 H43       -15.2097  -19.8830   37.5349 H         1 UNK         0.0600 
     44 H44       -14.3585  -19.2477   36.1604 H         1 UNK         0.0600 
     45 H45       -13.5490  -18.7399   39.0743 H         1 UNK         0.0600 
     46 H46       -12.7195  -18.0849   37.6801 H         1 UNK         0.0600 
     47 H47       -15.2595  -17.2105   37.2351 H         1 UNK         0.3000 
@<TRIPOS>BOND
     1    1    2 ar   
     2    1    7 ar   
     3    1   26 1    
     4    2   12 ar   
     5    2   27 1    
     6    3    6 ar   
     7    3    9 ar   
     8    3   28 1    
     9    4    6 ar   
    10    4   10 ar   
    11    4   29 1    
    12    5    8 ar   
    13    5   12 ar   
    14    5   30 1    
    15    6   13 1    
    16    7    8 ar   
    17    7   18 1    
    18    8   14 1    
    19    9   11 ar   
    20    9   22 1    
    21   10   11 ar   
    22   10   23 1    
    23   11   24 1    
    24   12   25 1    
    25   13   20 am   BACKBONE|DICT|INTERRES
    26   13   21 2    
    27   14   31 1    
    28   14   32 1    
    29   14   33 1    
    30   15   22 1    
    31   15   34 1    
    32   15   35 1    
    33   15   36 1    
    34   16   23 1    
    35   16   37 1    
    36   16   38 1    
    37   16   39 1    
    38   17   24 1    
    39   17   40 1    
    40   17   41 1    
    41   17   42 1    
    42   18   19 1    
    43   18   43 1    
    44   18   44 1    
    45   19   20 1    
    46   19   45 1    
    47   19   46 1    
    48   20   47 1    
@<TRIPOS>SUBSTRUCTURE
     1 UNK         1 GROUP             0       ****    0 ROOT    
@<TRIPOS>MOLECULE
ZINC88264013_257
45   47    1
SMALL
USER_CHARGES


@<TRIPOS>ATOM
      1 C1         -3.7088   -8.9013   35.4941 C.ar      1 UNK        -0.1150 
      2 C2         -4.1116   -8.6161   36.8121 C.ar      1 UNK        -0.1150 
      3 C3         -8.8898   -2.9782   37.5498 C.ar      1 UNK        -0.1150 
      4 C4         -3.7631  -10.2215   35.0066 C.ar      1 UNK        -0.1150 
      5 C5         -8.1236   -1.8976   38.0204 C.ar      1 UNK        -0.1150 
      6 C6         -4.6231  -10.9729   37.1557 C.ar      1 UNK        -0.1150 
      7 C7         -6.7621   -3.4427   39.3205 C.ar      1 UNK        -0.1150 
      8 C8         -4.5769   -9.6524   37.6479 C.ar      1 UNK        -0.0418 
      9 C9         -7.5403   -4.5445   38.8754 C.ar      1 UNK        -0.0383 
     10 C10        -8.6078   -4.2930   37.9685 C.ar      1 UNK         0.0850 
     11 C11        -4.2219  -11.2731   35.8386 C.ar      1 UNK         0.0850 
     12 C12        -7.0566   -2.1321   38.9026 C.ar      1 UNK         0.2200 
     13 C13        -6.5799   -6.2582   40.3785 C.2       1 UNK         0.5000 
     14 C14        -7.8355   -6.9264   38.3618 C.3       1 UNK        -0.0500 
     15 C15        -9.2940   -6.5605   38.0760 C.3       1 UNK         0.1400 
     16 C16        -4.9446   -7.7683   41.6640 C.3       1 UNK        -0.1800 
     17 C17        -3.9061  -12.9253   34.1269 C.3       1 UNK         0.1100 
     18 C18        -5.0086   -9.3662   39.0742 C.3       1 UNK         0.1818 
     19 C19        -5.9579   -7.6725   40.5027 C.3       1 UNK         0.1700 
     20 N20        -7.2454   -5.9066   39.2408 N.am      1 UNK        -0.0317 
     21 O21        -6.4746   -5.4974   41.3429 O.2       1 UNK        -0.5000 
     22 O22        -9.3825   -5.2973   37.4379 O.3       1 UNK        -0.2850 
     23 O23        -4.3060  -12.5916   35.4481 O.3       1 UNK        -0.2850 
     24 O24        -5.3097   -7.9914   39.2724 O.3       1 UNK        -0.4000 
     25 F25        -6.3033   -1.0962   39.3396 F         1 UNK        -0.2200 
     26 H26        -3.3557   -8.1046   34.8555 H         1 UNK         0.1150 
     27 H27        -4.0623   -7.6005   37.1787 H         1 UNK         0.1150 
     28 H28        -9.7011   -2.8001   36.8595 H         1 UNK         0.1150 
     29 H29        -3.4449  -10.4009   33.9911 H         1 UNK         0.1150 
     30 H30        -8.3432   -0.8908   37.6986 H         1 UNK         0.1150 
     31 H31        -4.9714  -11.7726   37.7924 H         1 UNK         0.1150 
     32 H32        -5.9165   -3.5754   39.9781 H         1 UNK         0.1150 
     33 H33        -7.8273   -7.9316   38.7791 H         1 UNK         0.0600 
     34 H34        -7.2627   -6.9686   37.4344 H         1 UNK         0.0600 
     35 H35        -9.7492   -7.3089   37.4270 H         1 UNK         0.0300 
     36 H36        -9.8772   -6.5428   38.9982 H         1 UNK         0.0300 
     37 H37        -4.0888   -7.1148   41.4913 H         1 UNK         0.0600 
     38 H38        -4.5721   -8.7822   41.7994 H         1 UNK         0.0600 
     39 H39        -5.3986   -7.4727   42.6108 H         1 UNK         0.0600 
     40 H40        -4.0260  -13.9978   33.9745 H         1 UNK         0.0300 
     41 H41        -2.8563  -12.6839   33.9552 H         1 UNK         0.0300 
     42 H42        -4.5212  -12.4161   33.3839 H         1 UNK         0.0300 
     43 H43        -5.8856   -9.9763   39.2968 H         1 UNK         0.0300 
     44 H44        -4.2085   -9.6826   39.7434 H         1 UNK         0.0300 
     45 H45        -6.7752   -8.3681   40.6974 H         1 UNK         0.0300 
@<TRIPOS>BOND
     1    1    2 ar   
     2    1    4 ar   
     3    1   26 1    
     4    2    8 ar   
     5    2   27 1    
     6    3    5 ar   
     7    3   10 ar   
     8    3   28 1    
     9    4   11 ar   
    10    4   29 1    
    11    5   12 ar   
    12    5   30 1    
    13    6    8 ar   
    14    6   11 ar   
    15    6   31 1    
    16    7    9 ar   
    17    7   12 ar   
    18    7   32 1    
    19    8   18 1    
    20    9   10 ar   
    21    9   20 1    
    22   10   22 1    
    23   11   23 1    
    24   12   25 1    
    25   13   19 1    
    26   13   20 am   BACKBONE|DICT|INTERRES
    27   13   21 2    
    28   14   15 1    
    29   14   20 1    
    30   14   33 1    
    31   14   34 1    
    32   15   22 1    
    33   15   35 1    
    34   15   36 1    
    35   16   19 1    
    36   16   37 1    
    37   16   38 1    
    38   16   39 1    
    39   17   23 1    
    40   17   40 1    
    41   17   41 1    
    42   17   42 1    
    43   18   24 1    
    44   18   43 1    
    45   18   44 1    
    46   19   24 1    
    47   19   45 1    
@<TRIPOS>SUBSTRUCTURE
     1 UNK         1 GROUP             0       ****    0 ROOT    
@<TRIPOS>MOLECULE
ZINC89398823_85
47   49    1
SMALL
USER_CHARGES


@<TRIPOS>ATOM
      1 C1         -7.1263  -13.3527   35.0553 C.ar      1 UNK        -0.1150 
      2 C2         -7.4974  -12.6180   36.1970 C.ar      1 UNK        -0.1150 
      3 C3         -6.9564  -14.7480   35.1364 C.ar      1 UNK        -0.1150 
      4 C4         -7.5264  -14.6734   37.5018 C.ar      1 UNK        -0.1150 
      5 C5         -7.7010  -13.2732   37.4302 C.ar      1 UNK         0.0000 
      6 C6         -7.1574  -15.4219   36.3665 C.ar      1 UNK         0.0850 
      7 C7         -8.7681  -10.8816   39.9151 C.ar      1 UNK         0.1215 
      8 C8         -8.4972  -11.9626   40.7282 C.ar      1 UNK        -0.2330 
      9 C9         -8.0823  -12.5057   38.6147 C.ar      1 UNK         0.3530 
     10 C10        -9.1831   -9.5108   40.3702 C.2       1 UNK         0.6385 
     11 C11       -10.7460   -8.8290   37.3457 C.3       1 UNK        -0.1200 
     12 C12       -11.0714   -9.5100   38.6871 C.3       1 UNK        -0.0500 
     13 C13       -10.5687   -7.5081   39.9523 C.3       1 UNK        -0.0500 
     14 C14       -10.9454   -7.2998   37.4358 C.3       1 UNK        -0.0600 
     15 C15       -10.2237   -6.7180   38.6766 C.3       1 UNK         0.2050 
     16 C16        -8.5789  -12.1274   42.2116 C.3       1 UNK        -0.0460 
     17 C17       -10.5097   -6.6090   36.1330 C.3       1 UNK        -0.1800 
     18 C18        -6.6601  -17.5662   35.4105 C.3       1 UNK         0.1100 
     19 N19        -8.4722  -11.2334   38.5914 N.2       1 UNK        -0.5630 
     20 N20        -8.0867  -12.9714   39.8707 N.pl3     1 UNK        -0.2570 
     21 N21       -10.2232   -8.9167   39.7304 N.am      1 UNK        -0.1400 
     22 O22        -8.5978   -8.9728   41.3117 O.2       1 UNK        -0.5000 
     23 O23       -10.6306   -5.3800   38.8562 O.3       1 UNK        -0.6830 
     24 O24        -7.0173  -16.7815   36.5390 O.3       1 UNK        -0.2850 
     25 H25        -6.9722  -12.8435   34.1153 H         1 UNK         0.1150 
     26 H26        -7.6258  -11.5467   36.1288 H         1 UNK         0.1150 
     27 H27        -6.6723  -15.2773   34.2399 H         1 UNK         0.1150 
     28 H28        -7.6831  -15.1970   38.4319 H         1 UNK         0.1150 
     29 H29        -9.7153   -9.0572   37.0679 H         1 UNK         0.0600 
     30 H30       -11.3751   -9.2449   36.5581 H         1 UNK         0.0600 
     31 H31       -12.1196   -9.3475   38.9416 H         1 UNK         0.0600 
     32 H32       -10.9692  -10.5917   38.6062 H         1 UNK         0.0600 
     33 H33       -10.0472   -7.0745   40.8074 H         1 UNK         0.0600 
     34 H34       -11.6319   -7.4247   40.1811 H         1 UNK         0.0600 
     35 H35       -12.0159   -7.1264   37.5623 H         1 UNK         0.0600 
     36 H36        -9.1424   -6.7394   38.5248 H         1 UNK         0.0600 
     37 H37        -9.5727  -11.8657   42.5763 H         1 UNK         0.0600 
     38 H38        -8.3682  -13.1529   42.5154 H         1 UNK         0.0600 
     39 H39        -7.8608  -11.4742   42.7099 H         1 UNK         0.0600 
     40 H40        -9.4376   -6.7180   35.9660 H         1 UNK         0.0600 
     41 H41       -10.7410   -5.5441   36.1463 H         1 UNK         0.0600 
     42 H42       -11.0240   -7.0389   35.2731 H         1 UNK         0.0600 
     43 H43        -6.5967  -18.6135   35.7057 H         1 UNK         0.0300 
     44 H44        -5.6855  -17.2759   35.0155 H         1 UNK         0.0300 
     45 H45        -7.4083  -17.4917   34.6200 H         1 UNK         0.0300 
     46 H46        -7.8010  -13.9015   40.1360 H         1 UNK         0.3060 
     47 H47       -10.3560   -4.8818   38.1014 H         1 UNK         0.4180 
@<TRIPOS>BOND
     1    1    2 ar   
     2    1    3 ar   
     3    1   25 1    
     4    2    5 ar   
     5    2   26 1    
     6    3    6 ar   
     7    3   27 1    
     8    4    5 ar   
     9    4    6 ar   
    10    4   28 1    
    11    5    9 1    
    12    6   24 1    
    13    7    8 ar   
    14    7   10 1    
    15    7   19 ar   
    16    8   16 1    
    17    8   20 ar   
    18    9   19 ar   
    19    9   20 ar   
    20   10   21 am   BACKBONE|DICT|INTERRES
    21   10   22 2    
    22   11   12 1    
    23   11   14 1    
    24   11   29 1    
    25   11   30 1    
    26   12   21 1    
    27   12   31 1    
    28   12   32 1    
    29   13   15 1    
    30   13   21 1    
    31   13   33 1    
    32   13   34 1    
    33   14   15 1    
    34   14   17 1    
    35   14   35 1    
    36   15   23 1    
    37   15   36 1    
    38   16   37 1    
    39   16   38 1    
    40   16   39 1    
    41   17   40 1    
    42   17   41 1    
    43   17   42 1    
    44   18   24 1    
    45   18   43 1    
    46   18   44 1    
    47   18   45 1    
    48   20   46 1    
    49   23   47 1    
@<TRIPOS>SUBSTRUCTURE
     1 UNK         1 GROUP             0       ****    0 ROOT    
@<TRIPOS>MOLECULE
ZINC89400261_64
40   42    1
SMALL
USER_CHARGES


@<TRIPOS>ATOM
      1 C1         -6.1309  -11.6793   35.3246 C.ar      1 UNK        -0.1150 
      2 C2         -6.4449  -10.9187   36.4680 C.ar      1 UNK        -0.1150 
      3 C3         -5.9518  -13.0713   35.4336 C.ar      1 UNK        -0.1150 
      4 C4         -7.1591  -10.0511   40.9663 C.ar      1 UNK        -0.3200 
      5 C5         -6.4010  -12.9412   37.8286 C.ar      1 UNK        -0.1150 
      6 C6         -6.7243  -11.1060   40.2158 C.ar      1 UNK         0.0360 
      7 C7         -6.5801  -11.5423   37.7310 C.ar      1 UNK         0.0731 
      8 C8         -6.0883  -13.7006   36.6851 C.ar      1 UNK         0.1800 
      9 C9         -7.6070   -9.0995   40.0062 C.ar      1 UNK         0.2230 
     10 C10        -8.1107   -7.7495   40.4546 C.2       1 UNK         0.6150 
     11 C11        -9.7380   -7.1784   37.4568 C.3       1 UNK        -0.1200 
     12 C12       -10.0307   -7.8481   38.8112 C.3       1 UNK        -0.0500 
     13 C13        -9.5830   -5.8131   40.0412 C.3       1 UNK        -0.0500 
     14 C14        -9.9698   -5.6518   37.5249 C.3       1 UNK        -0.0600 
     15 C15        -9.2598   -5.0304   38.7541 C.3       1 UNK         0.2050 
     16 C16        -9.5495   -4.9732   36.2113 C.3       1 UNK        -0.1800 
     17 N17        -7.4142   -9.5318   38.7646 N.2       1 UNK        -0.5310 
     18 N18        -6.8939  -10.7750   38.8838 N.pl3     1 UNK         0.1189 
     19 N19        -9.1920   -7.2114   39.8351 N.am      1 UNK        -0.1400 
     20 O20        -7.5312   -7.1818   41.3829 O.2       1 UNK        -0.5000 
     21 O21        -9.6969   -3.6982   38.9147 O.3       1 UNK        -0.6830 
     22 Cl22       -5.8731  -15.4064   36.8194 Cl        1 UNK        -0.1800 
     23 H23        -6.0272  -11.1933   34.3653 H         1 UNK         0.1150 
     24 H24        -6.5776   -9.8501   36.3727 H         1 UNK         0.1150 
     25 H25        -5.7112  -13.6579   34.5589 H         1 UNK         0.1150 
     26 H26        -7.1538   -9.9544   42.0420 H         1 UNK         0.1500 
     27 H27        -6.5103  -13.4506   38.7733 H         1 UNK         0.1150 
     28 H28        -6.2969  -12.0481   40.5250 H         1 UNK         0.1350 
     29 H29        -8.7063   -7.3869   37.1682 H         1 UNK         0.0600 
     30 H30       -10.3675   -7.6190   36.6827 H         1 UNK         0.0600 
     31 H31       -11.0817   -7.7132   39.0708 H         1 UNK         0.0600 
     32 H32        -9.8962   -8.9273   38.7490 H         1 UNK         0.0600 
     33 H33        -9.0801   -5.3589   40.8966 H         1 UNK         0.0600 
     34 H34       -10.6500   -5.7619   40.2636 H         1 UNK         0.0600 
     35 H35       -11.0429   -5.4941   37.6492 H         1 UNK         0.0600 
     36 H36        -8.1799   -5.0273   38.5921 H         1 UNK         0.0600 
     37 H37        -9.7687   -3.9052   36.2339 H         1 UNK         0.0600 
     38 H38       -10.0830   -5.3972   35.3606 H         1 UNK         0.0600 
     39 H39        -8.4809   -5.0878   36.0282 H         1 UNK         0.0600 
     40 H40        -9.1622   -3.2788   39.5725 H         1 UNK         0.4180 
@<TRIPOS>BOND
     1    1    2 ar   
     2    1    3 ar   
     3    1   23 1    
     4    2    7 ar   
     5    2   24 1    
     6    3    8 ar   
     7    3   25 1    
     8    4    6 ar   
     9    4    9 ar   
    10    4   26 1    
    11    5    7 ar   
    12    5    8 ar   
    13    5   27 1    
    14    6   18 ar   
    15    6   28 1    
    16    7   18 1    
    17    8   22 1    
    18    9   10 1    
    19    9   17 ar   
    20   10   19 am   BACKBONE|DICT|INTERRES
    21   10   20 2    
    22   11   12 1    
    23   11   14 1    
    24   11   29 1    
    25   11   30 1    
    26   12   19 1    
    27   12   31 1    
    28   12   32 1    
    29   13   15 1    
    30   13   19 1    
    31   13   33 1    
    32   13   34 1    
    33   14   15 1    
    34   14   16 1    
    35   14   35 1    
    36   15   21 1    
    37   15   36 1    
    38   16   37 1    
    39   16   38 1    
    40   16   39 1    
    41   17   18 ar   
    42   21   40 1    
@<TRIPOS>SUBSTRUCTURE
     1 UNK         1 GROUP             0       ****    0 ROOT    
@<TRIPOS>MOLECULE
ZINC89407190_38
42   44    1
SMALL
USER_CHARGES


@<TRIPOS>ATOM
      1 C1         -7.8666  -14.7906   37.7522 C.ar      1 UNK        -0.1150 
      2 C2         -7.2679  -12.6589   36.7413 C.ar      1 UNK        -0.1150 
      3 C3         -7.3093  -15.4690   36.6504 C.ar      1 UNK        -0.1150 
      4 C4         -6.7086  -13.3356   35.6399 C.ar      1 UNK        -0.1150 
      5 C5         -9.4089  -11.9270   41.0818 C.2       1 UNK        -0.3376 
      6 C6         -7.8508  -13.3777   37.8094 C.ar      1 UNK         0.0000 
      7 C7         -6.7266  -14.7435   35.5922 C.ar      1 UNK        -0.1150 
      8 C8         -9.2186  -10.8995   40.1907 C.2       1 UNK         0.1693 
      9 C9         -8.4272  -12.6519   38.9445 C.2       1 UNK         0.3009 
     10 C10        -9.5050   -9.4663   40.5328 C.2       1 UNK         0.6150 
     11 C11       -11.6866   -8.2428   37.7073 C.3       1 UNK        -0.1200 
     12 C12       -10.6127   -9.1725   38.3028 C.3       1 UNK        -0.0500 
     13 C13       -10.2222   -7.2278   39.8355 C.3       1 UNK        -0.0500 
     14 C14       -11.2005   -6.7929   37.5109 C.3       1 UNK        -0.0600 
     15 C15       -10.1037   -6.4242   38.5317 C.3       1 UNK         0.2050 
     16 C16        -6.1286  -15.4712   34.4061 C.3       1 UNK        -0.0650 
     17 C17       -10.7319   -6.5324   36.0703 C.3       1 UNK        -0.1800 
     18 N18        -8.6241  -11.3298   38.9943 N.2       1 UNK        -0.4803 
     19 N19       -10.0654   -8.6728   39.5824 N.am      1 UNK        -0.1400 
     20 O20        -9.2641   -9.0577   41.6700 O.2       1 UNK        -0.5000 
     21 O21       -10.1796   -5.0453   38.8152 O.3       1 UNK        -0.6830 
     22 S22        -8.9287  -13.4676   40.4273 S.3       1 UNK         0.0010 
     23 H23        -8.3084  -15.3721   38.5471 H         1 UNK         0.1150 
     24 H24        -7.2452  -11.5788   36.7663 H         1 UNK         0.1150 
     25 H25        -7.3326  -16.5489   36.6228 H         1 UNK         0.1150 
     26 H26        -6.2665  -12.7676   34.8341 H         1 UNK         0.1150 
     27 H27        -9.7968  -11.8500   42.0870 H         1 UNK         0.2317 
     28 H28       -12.0690   -8.6548   36.7726 H         1 UNK         0.0600 
     29 H29       -12.5384   -8.2344   38.3895 H         1 UNK         0.0600 
     30 H30       -11.0596  -10.1593   38.4349 H         1 UNK         0.0600 
     31 H31        -9.7938   -9.2898   37.5913 H         1 UNK         0.0600 
     32 H32        -9.4599   -6.8662   40.5291 H         1 UNK         0.0600 
     33 H33       -11.1850   -7.0492   40.3163 H         1 UNK         0.0600 
     34 H34       -12.0708   -6.1574   37.6875 H         1 UNK         0.0600 
     35 H35        -9.1179   -6.6245   38.1066 H         1 UNK         0.0600 
     36 H36        -6.8622  -15.5479   33.6034 H         1 UNK         0.0600 
     37 H37        -5.2561  -14.9397   34.0248 H         1 UNK         0.0600 
     38 H38        -5.8139  -16.4781   34.6817 H         1 UNK         0.0600 
     39 H39       -10.4279   -5.4945   35.9343 H         1 UNK         0.0600 
     40 H40       -11.5293   -6.7336   35.3546 H         1 UNK         0.0600 
     41 H41        -9.8836   -7.1655   35.8079 H         1 UNK         0.0600 
     42 H42       -10.0282   -4.5634   38.0162 H         1 UNK         0.4180 
@<TRIPOS>BOND
     1    1    3 ar   
     2    1    6 ar   
     3    1   23 1    
     4    2    4 ar   
     5    2    6 ar   
     6    2   24 1    
     7    3    7 ar   
     8    3   25 1    
     9    4    7 ar   
    10    4   26 1    
    11    5    8 2    
    12    5   22 1    
    13    5   27 1    
    14    6    9 1    
    15    7   16 1    
    16    8   10 1    
    17    8   18 1    
    18    9   18 2    
    19    9   22 1    
    20   10   19 am   BACKBONE|DICT|INTERRES
    21   10   20 2    
    22   11   12 1    
    23   11   14 1    
    24   11   28 1    
    25   11   29 1    
    26   12   19 1    
    27   12   30 1    
    28   12   31 1    
    29   13   15 1    
    30   13   19 1    
    31   13   32 1    
    32   13   33 1    
    33   14   15 1    
    34   14   17 1    
    35   14   34 1    
    36   15   21 1    
    37   15   35 1    
    38   16   36 1    
    39   16   37 1    
    40   16   38 1    
    41   17   39 1    
    42   17   40 1    
    43   17   41 1    
    44   21   42 1    
@<TRIPOS>SUBSTRUCTURE
     1 UNK         1 GROUP             0       ****    0 ROOT    
@<TRIPOS>MOLECULE
ZINC89407814_2
43   45    1
SMALL
USER_CHARGES


@<TRIPOS>ATOM
      1 C1         -3.7675  -11.7950   35.2469 C.ar      1 UNK        -0.1150 
      2 C2         -3.2092  -10.7042   35.9380 C.ar      1 UNK        -0.1150 
      3 C3         -5.0162  -12.3071   35.6438 C.ar      1 UNK        -0.1150 
      4 C4         -3.9004  -10.1282   37.0219 C.ar      1 UNK        -0.1150 
      5 C5         -5.7030  -11.7278   36.7289 C.ar      1 UNK        -0.1150 
      6 C6         -6.5382  -10.8283   39.5205 C.ar      1 UNK        -0.1150 
      7 C7         -7.2132  -10.2476   40.6104 C.ar      1 UNK        -0.1150 
      8 C8         -5.9235   -8.6215   38.7279 C.ar      1 UNK        -0.1150 
      9 C9         -5.1563  -10.6305   37.4325 C.ar      1 UNK         0.0000 
     10 C10        -5.8781  -10.0237   38.5668 C.ar      1 UNK         0.0000 
     11 C11        -6.6196   -8.0230   39.8006 C.ar      1 UNK        -0.1150 
     12 C12        -7.2525   -8.8490   40.7634 C.ar      1 UNK         0.1800 
     13 C13        -6.6145   -6.5242   39.9101 C.2       1 UNK         0.6150 
     14 C14        -8.1207   -3.7524   38.6368 C.3       1 UNK        -0.1200 
     15 C15        -7.8799   -4.4051   40.0103 C.3       1 UNK        -0.0500 
     16 C16        -9.0657   -6.4237   39.3639 C.3       1 UNK        -0.0500 
     17 C17        -9.3802   -4.3257   37.9527 C.3       1 UNK        -0.0600 
     18 C18        -9.3526   -5.8728   37.9543 C.3       1 UNK         0.2050 
     19 C19        -9.5455   -3.7520   36.5361 C.3       1 UNK        -0.1800 
     20 N20        -7.7954   -5.8607   39.8414 N.am      1 UNK        -0.1400 
     21 O21        -5.5331   -5.9491   40.0305 O.2       1 UNK        -0.5000 
     22 O22       -10.6082   -6.3566   37.5284 O.3       1 UNK        -0.6830 
     23 Cl23       -8.0718   -8.1994   42.1423 Cl        1 UNK        -0.1800 
     24 H24        -3.2388  -12.2376   34.4148 H         1 UNK         0.1150 
     25 H25        -2.2489  -10.3090   35.6392 H         1 UNK         0.1150 
     26 H26        -5.4492  -13.1438   35.1149 H         1 UNK         0.1150 
     27 H27        -3.4528   -9.2970   37.5477 H         1 UNK         0.1150 
     28 H28        -6.6646  -12.1281   37.0149 H         1 UNK         0.1150 
     29 H29        -6.5097  -11.9046   39.4312 H         1 UNK         0.1150 
     30 H30        -7.6956  -10.8798   41.3415 H         1 UNK         0.1150 
     31 H31        -5.4235   -7.9856   38.0106 H         1 UNK         0.1150 
     32 H32        -8.2174   -2.6724   38.7535 H         1 UNK         0.0600 
     33 H33        -7.2469   -3.9155   38.0038 H         1 UNK         0.0600 
     34 H34        -6.9819   -3.9888   40.4709 H         1 UNK         0.0600 
     35 H35        -8.6972   -4.1666   40.6925 H         1 UNK         0.0600 
     36 H36        -9.8610   -6.1363   40.0538 H         1 UNK         0.0600 
     37 H37        -9.0781   -7.5118   39.3400 H         1 UNK         0.0600 
     38 H38       -10.2423   -4.0071   38.5419 H         1 UNK         0.0600 
     39 H39        -8.5881   -6.2270   37.2598 H         1 UNK         0.0600 
     40 H40       -10.4694   -4.1038   36.0753 H         1 UNK         0.0600 
     41 H41        -8.7198   -4.0468   35.8881 H         1 UNK         0.0600 
     42 H42        -9.5853   -2.6628   36.5541 H         1 UNK         0.0600 
     43 H43       -10.5457   -7.2864   37.3690 H         1 UNK         0.4180 
@<TRIPOS>BOND
     1    1    2 ar   
     2    1    3 ar   
     3    1   24 1    
     4    2    4 ar   
     5    2   25 1    
     6    3    5 ar   
     7    3   26 1    
     8    4    9 ar   
     9    4   27 1    
    10    5    9 ar   
    11    5   28 1    
    12    6    7 ar   
    13    6   10 ar   
    14    6   29 1    
    15    7   12 ar   
    16    7   30 1    
    17    8   10 ar   
    18    8   11 ar   
    19    8   31 1    
    20    9   10 1    
    21   11   12 ar   
    22   11   13 1    
    23   12   23 1    
    24   13   20 am   BACKBONE|DICT|INTERRES
    25   13   21 2    
    26   14   15 1    
    27   14   17 1    
    28   14   32 1    
    29   14   33 1    
    30   15   20 1    
    31   15   34 1    
    32   15   35 1    
    33   16   18 1    
    34   16   20 1    
    35   16   36 1    
    36   16   37 1    
    37   17   18 1    
    38   17   19 1    
    39   17   38 1    
    40   18   22 1    
    41   18   39 1    
    42   19   40 1    
    43   19   41 1    
    44   19   42 1    
    45   22   43 1    
@<TRIPOS>SUBSTRUCTURE
     1 UNK         1 GROUP             0       ****    0 ROOT    
@<TRIPOS>MOLECULE
ZINC89407838_103
45   47    1
SMALL
USER_CHARGES


@<TRIPOS>ATOM
      1 C1         -7.9002  -13.9675   37.5320 C.ar      1 UNK        -0.1150 
      2 C2         -7.5167  -14.7923   36.4584 C.ar      1 UNK        -0.1150 
      3 C3         -5.8279  -13.1595   35.8180 C.ar      1 UNK        -0.1150 
      4 C4         -8.3938  -11.0679   41.0906 C.2       1 UNK        -0.3376 
      5 C5         -7.2545  -12.7329   37.7624 C.ar      1 UNK         0.0000 
      6 C6         -6.4776  -14.3903   35.5989 C.ar      1 UNK        -0.1150 
      7 C7         -6.2046  -12.3277   36.8948 C.ar      1 UNK        -0.1150 
      8 C8         -8.3691  -10.1028   40.1134 C.2       1 UNK         0.1693 
      9 C9         -7.6935  -11.9171   38.8951 C.2       1 UNK         0.3009 
     10 C10        -8.6433   -8.6546   40.3947 C.2       1 UNK         0.6150 
     11 C11       -11.2626   -7.6741   37.8703 C.3       1 UNK        -0.1200 
     12 C12       -10.0850   -8.5441   38.3476 C.3       1 UNK        -0.0500 
     13 C13        -9.4821   -6.4796   39.6373 C.3       1 UNK        -0.0500 
     14 C14       -10.8464   -6.2400   37.4859 C.3       1 UNK        -0.0600 
     15 C15        -9.5969   -5.7880   38.2703 C.3       1 UNK         0.2050 
     16 C16        -6.0658  -15.2803   34.4446 C.3       1 UNK        -0.0650 
     17 C17        -5.4554  -11.0210   37.0999 C.3       1 UNK        -0.0650 
     18 C18       -10.6389   -6.0874   35.9705 C.3       1 UNK        -0.1800 
     19 N19        -7.9432  -10.6039   38.8738 N.2       1 UNK        -0.4803 
     20 N20        -9.3523   -7.9409   39.4815 N.am      1 UNK        -0.1400 
     21 O21        -8.2488   -8.1589   41.4517 O.2       1 UNK        -0.5000 
     22 O22        -9.6397   -4.3901   38.4466 O.3       1 UNK        -0.6830 
     23 S23        -7.9547  -12.6394   40.4809 S.3       1 UNK         0.0010 
     24 H24        -8.7036  -14.2863   38.1797 H         1 UNK         0.1150 
     25 H25        -8.0240  -15.7326   36.2972 H         1 UNK         0.1150 
     26 H26        -5.0307  -12.8521   35.1566 H         1 UNK         0.1150 
     27 H27        -8.6356  -10.9289   42.1340 H         1 UNK         0.2317 
     28 H28       -11.7855   -8.1622   37.0469 H         1 UNK         0.0600 
     29 H29       -11.9896   -7.6192   38.6824 H         1 UNK         0.0600 
     30 H30       -10.4807   -9.5236   38.6220 H         1 UNK         0.0600 
     31 H31        -9.3885   -8.7055   37.5232 H         1 UNK         0.0600 
     32 H32        -8.6169   -6.0644   40.1590 H         1 UNK         0.0600 
     33 H33       -10.3517   -6.2596   40.2582 H         1 UNK         0.0600 
     34 H34       -11.6847   -5.5981   37.7646 H         1 UNK         0.0600 
     35 H35        -8.6956   -6.0248   37.7010 H         1 UNK         0.0600 
     36 H36        -6.8154  -15.2413   33.6540 H         1 UNK         0.0600 
     37 H37        -5.1089  -14.9694   34.0246 H         1 UNK         0.0600 
     38 H38        -5.9673  -16.3143   34.7765 H         1 UNK         0.0600 
     39 H39        -6.0885  -10.1762   36.8280 H         1 UNK         0.0600 
     40 H40        -5.1557  -10.9061   38.1421 H         1 UNK         0.0600 
     41 H41        -4.5533  -10.9768   36.4897 H         1 UNK         0.0600 
     42 H42       -10.3901   -5.0599   35.7057 H         1 UNK         0.0600 
     43 H43       -11.5417   -6.3551   35.4206 H         1 UNK         0.0600 
     44 H44        -9.8317   -6.7281   35.6138 H         1 UNK         0.0600 
     45 H45        -9.6317   -3.9779   37.5958 H         1 UNK         0.4180 
@<TRIPOS>BOND
     1    1    2 ar   
     2    1    5 ar   
     3    1   24 1    
     4    2    6 ar   
     5    2   25 1    
     6    3    6 ar   
     7    3    7 ar   
     8    3   26 1    
     9    4    8 2    
    10    4   23 1    
    11    4   27 1    
    12    5    7 ar   
    13    5    9 1    
    14    6   16 1    
    15    7   17 1    
    16    8   10 1    
    17    8   19 1    
    18    9   19 2    
    19    9   23 1    
    20   10   20 am   BACKBONE|DICT|INTERRES
    21   10   21 2    
    22   11   12 1    
    23   11   14 1    
    24   11   28 1    
    25   11   29 1    
    26   12   20 1    
    27   12   30 1    
    28   12   31 1    
    29   13   15 1    
    30   13   20 1    
    31   13   32 1    
    32   13   33 1    
    33   14   15 1    
    34   14   18 1    
    35   14   34 1    
    36   15   22 1    
    37   15   35 1    
    38   16   36 1    
    39   16   37 1    
    40   16   38 1    
    41   17   39 1    
    42   17   40 1    
    43   17   41 1    
    44   18   42 1    
    45   18   43 1    
    46   18   44 1    
    47   22   45 1    
@<TRIPOS>SUBSTRUCTURE
     1 UNK         1 GROUP             0       ****    0 ROOT    
@<TRIPOS>MOLECULE
ZINC89408133_37
48   50    1
SMALL
USER_CHARGES


@<TRIPOS>ATOM
      1 C1         -7.4330  -14.5029   37.9322 C.ar      1 UNK        -0.1150 
      2 C2         -6.8740  -12.4780   36.7052 C.ar      1 UNK        -0.1150 
      3 C3         -6.9847  -15.2820   36.8477 C.ar      1 UNK        -0.1150 
      4 C4         -6.4233  -13.2565   35.6214 C.ar      1 UNK        -0.1150 
      5 C5         -8.6175  -11.3411   41.1362 C.2       1 UNK        -0.3376 
      6 C6         -7.3809  -13.0915   37.8726 C.ar      1 UNK         0.0000 
      7 C7         -6.4753  -14.6643   35.6857 C.ar      1 UNK        -0.1150 
      8 C8         -8.4823  -10.3937   40.1514 C.2       1 UNK         0.1693 
      9 C9         -7.8424  -12.2615   38.9889 C.2       1 UNK         0.3009 
     10 C10        -8.7038   -8.9299   40.3975 C.2       1 UNK         0.6150 
     11 C11       -11.1287   -7.8826   37.7060 C.3       1 UNK        -0.1200 
     12 C12       -10.0201   -8.7915   38.2689 C.3       1 UNK        -0.0500 
     13 C13        -9.4242   -6.7358   39.5753 C.3       1 UNK        -0.0500 
     14 C14       -10.6324   -6.4707   37.3350 C.3       1 UNK        -0.0600 
     15 C15        -9.4233   -6.0547   38.1984 C.3       1 UNK         0.2050 
     16 C16       -10.3157   -6.3461   35.8359 C.3       1 UNK        -0.1800 
     17 C17        -7.1206  -16.3368   33.9030 C.3       1 UNK        -0.1800 
     18 C18        -4.7861  -16.3764   34.9085 C.3       1 UNK        -0.1800 
     19 C19        -5.9848  -15.5016   34.5124 C.3       1 UNK         0.0550 
     20 N20        -8.0056  -10.9345   38.9471 N.2       1 UNK        -0.4803 
     21 N21        -9.3342   -8.2019   39.4390 N.am      1 UNK        -0.1400 
     22 O22        -8.3456   -8.4357   41.4679 O.2       1 UNK        -0.5000 
     23 O23        -9.4292   -4.6546   38.3604 O.3       1 UNK        -0.6830 
     24 S24        -8.2317  -12.9422   40.5705 S.3       1 UNK         0.0010 
     25 H25        -7.8193  -15.0065   38.8051 H         1 UNK         0.1150 
     26 H26        -6.8254  -11.4006   36.6396 H         1 UNK         0.1150 
     27 H27        -7.0340  -16.3590   36.9125 H         1 UNK         0.1150 
     28 H28        -6.0369  -12.7630   34.7415 H         1 UNK         0.1150 
     29 H29        -8.9145  -11.1735   42.1611 H         1 UNK         0.2317 
     30 H30       -11.6153   -8.3602   36.8548 H         1 UNK         0.0600 
     31 H31       -11.9049   -7.7896   38.4677 H         1 UNK         0.0600 
     32 H32       -10.4731   -9.7497   38.5302 H         1 UNK         0.0600 
     33 H33        -9.2808   -8.9941   37.4923 H         1 UNK         0.0600 
     34 H34        -8.5826   -6.3437   40.1505 H         1 UNK         0.0600 
     35 H35       -10.3253   -6.4810   40.1350 H         1 UNK         0.0600 
     36 H36       -11.4633   -5.7946   37.5474 H         1 UNK         0.0600 
     37 H37        -8.4944   -6.3282   37.6934 H         1 UNK         0.0600 
     38 H38       -10.0027   -5.3336   35.5800 H         1 UNK         0.0600 
     39 H39       -11.1909   -6.5781   35.2285 H         1 UNK         0.0600 
     40 H40        -9.5166   -7.0270   35.5401 H         1 UNK         0.0600 
     41 H41        -7.5159  -17.0619   34.6144 H         1 UNK         0.0600 
     42 H42        -6.7768  -16.8876   33.0271 H         1 UNK         0.0600 
     43 H43        -7.9463  -15.6985   33.5871 H         1 UNK         0.0600 
     44 H44        -5.0527  -17.1038   35.6754 H         1 UNK         0.0600 
     45 H45        -3.9716  -15.7662   35.3004 H         1 UNK         0.0600 
     46 H46        -4.4003  -16.9275   34.0505 H         1 UNK         0.0600 
     47 H47        -5.6393  -14.8161   33.7371 H         1 UNK         0.0600 
     48 H48        -9.3487   -4.2514   37.5090 H         1 UNK         0.4180 
@<TRIPOS>BOND
     1    1    3 ar   
     2    1    6 ar   
     3    1   25 1    
     4    2    4 ar   
     5    2    6 ar   
     6    2   26 1    
     7    3    7 ar   
     8    3   27 1    
     9    4    7 ar   
    10    4   28 1    
    11    5    8 2    
    12    5   24 1    
    13    5   29 1    
    14    6    9 1    
    15    7   19 1    
    16    8   10 1    
    17    8   20 1    
    18    9   20 2    
    19    9   24 1    
    20   10   21 am   BACKBONE|DICT|INTERRES
    21   10   22 2    
    22   11   12 1    
    23   11   14 1    
    24   11   30 1    
    25   11   31 1    
    26   12   21 1    
    27   12   32 1    
    28   12   33 1    
    29   13   15 1    
    30   13   21 1    
    31   13   34 1    
    32   13   35 1    
    33   14   15 1    
    34   14   16 1    
    35   14   36 1    
    36   15   23 1    
    37   15   37 1    
    38   16   38 1    
    39   16   39 1    
    40   16   40 1    
    41   17   19 1    
    42   17   41 1    
    43   17   42 1    
    44   17   43 1    
    45   18   19 1    
    46   18   44 1    
    47   18   45 1    
    48   18   46 1    
    49   19   47 1    
    50   23   48 1    
@<TRIPOS>SUBSTRUCTURE
     1 UNK         1 GROUP             0       ****    0 ROOT    
@<TRIPOS>MOLECULE
ZINC89412272_43
50   53    1
SMALL
USER_CHARGES


@<TRIPOS>ATOM
      1 C1         -7.4115  -15.6325   36.3517 C.ar      1 UNK        -0.1150 
      2 C2         -6.2271  -13.6235   35.6457 C.ar      1 UNK        -0.1150 
      3 C3         -7.9598  -14.9268   37.4409 C.ar      1 UNK        -0.1150 
      4 C4         -6.7767  -12.9189   36.7344 C.ar      1 UNK        -0.1150 
      5 C5         -8.9493  -12.2517   40.7417 C.ar      1 UNK        -0.2850 
      6 C6         -6.5397  -14.9844   35.4540 C.ar      1 UNK        -0.1150 
      7 C7         -7.6413  -13.5661   37.6454 C.ar      1 UNK         0.0731 
      8 C8         -8.8433  -11.1228   39.8827 C.ar      1 UNK         0.2230 
      9 C9         -8.5419  -13.2875   40.0039 C.ar      1 UNK         0.0560 
     10 C10        -9.1670   -9.7321   40.3737 C.2       1 UNK         0.6150 
     11 C11        -9.3291  -12.6225   42.1319 C.3       1 UNK        -0.0050 
     12 C12        -8.5512  -14.5772   40.7199 C.3       1 UNK        -0.0050 
     13 C13        -8.9950  -14.1497   42.1549 C.3       1 UNK        -0.1200 
     14 C14       -11.6807   -8.4534   37.8999 C.3       1 UNK        -0.1200 
     15 C15       -10.4581   -9.3136   38.2715 C.3       1 UNK        -0.0500 
     16 C16       -10.0138   -7.4792   39.9275 C.3       1 UNK        -0.0500 
     17 C17       -11.3793   -6.9425   37.8341 C.3       1 UNK        -0.0600 
     18 C18       -10.1530   -6.5751   38.6935 C.3       1 UNK         0.2050 
     19 C19        -5.9498  -15.7446   34.2842 C.3       1 UNK        -0.0650 
     20 C20       -11.2171   -6.4505   36.3867 C.3       1 UNK        -0.1800 
     21 N21        -8.3572  -11.4990   38.6912 N.2       1 UNK        -0.5310 
     22 N22        -8.1756  -12.8504   38.7473 N.pl3     1 UNK         0.1189 
     23 N23        -9.8357   -8.8916   39.5436 N.am      1 UNK        -0.1400 
     24 O24        -8.8352   -9.4095   41.5170 O.2       1 UNK        -0.5000 
     25 O25       -10.2617   -5.2304   39.1031 O.3       1 UNK        -0.6830 
     26 H26        -7.6662  -16.6725   36.2068 H         1 UNK         0.1150 
     27 H27        -5.5645  -13.1122   34.9625 H         1 UNK         0.1150 
     28 H28        -8.6360  -15.4381   38.1062 H         1 UNK         0.1150 
     29 H29        -6.5271  -11.8774   36.8759 H         1 UNK         0.1150 
     30 H30        -8.7545  -12.0737   42.8798 H         1 UNK         0.0600 
     31 H31       -10.3872  -12.4447   42.3261 H         1 UNK         0.0600 
     32 H32        -9.2716  -15.2641   40.2767 H         1 UNK         0.0600 
     33 H33        -7.5651  -15.0422   40.7136 H         1 UNK         0.0600 
     34 H34        -8.1787  -14.3298   42.8557 H         1 UNK         0.0600 
     35 H35        -9.8453  -14.7378   42.5021 H         1 UNK         0.0600 
     36 H36       -12.1185   -8.8053   36.9648 H         1 UNK         0.0600 
     37 H37       -12.4475   -8.6200   38.6584 H         1 UNK         0.0600 
     38 H38       -10.7923  -10.3510   38.3253 H         1 UNK         0.0600 
     39 H39        -9.7080   -9.2693   37.4802 H         1 UNK         0.0600 
     40 H40        -9.1620   -7.1299   40.5152 H         1 UNK         0.0600 
     41 H41       -10.8905   -7.3920   40.5708 H         1 UNK         0.0600 
     42 H42       -12.2557   -6.4412   38.2503 H         1 UNK         0.0600 
     43 H43        -9.2411   -6.6728   38.1005 H         1 UNK         0.0600 
     44 H44        -6.6443  -15.7404   33.4439 H         1 UNK         0.0600 
     45 H45        -5.0124  -15.2940   33.9568 H         1 UNK         0.0600 
     46 H46        -5.7461  -16.7805   34.5577 H         1 UNK         0.0600 
     47 H47       -11.0509   -5.3738   36.3488 H         1 UNK         0.0600 
     48 H48       -12.1105   -6.6610   35.7979 H         1 UNK         0.0600 
     49 H49       -10.3737   -6.9364   35.8948 H         1 UNK         0.0600 
     50 H50       -10.2784   -4.6816   38.3337 H         1 UNK         0.4180 
@<TRIPOS>BOND
     1    1    3 ar   
     2    1    6 ar   
     3    1   26 1    
     4    2    4 ar   
     5    2    6 ar   
     6    2   27 1    
     7    3    7 ar   
     8    3   28 1    
     9    4    7 ar   
    10    4   29 1    
    11    5    8 ar   
    12    5    9 ar   
    13    5   11 1    
    14    6   19 1    
    15    7   22 1    
    16    8   10 1    
    17    8   21 ar   
    18    9   12 1    
    19    9   22 ar   
    20   10   23 am   BACKBONE|DICT|INTERRES
    21   10   24 2    
    22   11   13 1    
    23   11   30 1    
    24   11   31 1    
    25   12   13 1    
    26   12   32 1    
    27   12   33 1    
    28   13   34 1    
    29   13   35 1    
    30   14   15 1    
    31   14   17 1    
    32   14   36 1    
    33   14   37 1    
    34   15   23 1    
    35   15   38 1    
    36   15   39 1    
    37   16   18 1    
    38   16   23 1    
    39   16   40 1    
    40   16   41 1    
    41   17   18 1    
    42   17   20 1    
    43   17   42 1    
    44   18   25 1    
    45   18   43 1    
    46   19   44 1    
    47   19   45 1    
    48   19   46 1    
    49   20   47 1    
    50   20   48 1    
    51   20   49 1    
    52   21   22 ar   
    53   25   50 1    
@<TRIPOS>SUBSTRUCTURE
     1 UNK         1 GROUP             0       ****    0 ROOT    
@<TRIPOS>MOLECULE
ZINC89415569_37
42   44    1
SMALL
USER_CHARGES


@<TRIPOS>ATOM
      1 C1         -4.4488  -11.6814   35.9356 C.ar      1 UNK         0.2270 
      2 C2         -4.9361  -10.8875   34.8856 C.ar      1 UNK        -0.4470 
      3 C3         -6.3896  -10.8332   39.8223 C.ar      1 UNK        -0.1150 
      4 C4         -6.8442  -10.4456   41.0982 C.ar      1 UNK        -0.1150 
      5 C5         -4.8279  -11.3648   37.2507 C.ar      1 UNK        -0.4470 
      6 C6         -6.3199   -8.5090   39.1475 C.ar      1 UNK        -0.1150 
      7 C7         -5.7791   -9.8094   35.1979 C.ar      1 UNK         0.4730 
      8 C8         -6.1299   -9.8700   38.8226 C.ar      1 UNK        -0.0446 
      9 C9         -6.8034   -8.1058   40.4120 C.ar      1 UNK        -0.1150 
     10 C10        -7.0590   -9.0868   41.3993 C.ar      1 UNK         0.1800 
     11 C11        -5.6776  -10.2631   37.4719 C.ar      1 UNK         0.5296 
     12 C12        -7.0265   -6.6441   40.6774 C.2       1 UNK         0.6150 
     13 C13        -7.9021   -3.9766   38.6313 C.3       1 UNK        -0.1200 
     14 C14        -8.1988   -4.5625   40.0251 C.3       1 UNK        -0.0500 
     15 C15        -8.9632   -6.6597   39.0671 C.3       1 UNK        -0.0500 
     16 C16        -8.7648   -4.6418   37.5361 C.3       1 UNK        -0.0600 
     17 C17        -8.6770   -6.1832   37.6307 C.3       1 UNK         0.2050 
     18 C18        -8.3783   -4.1263   36.1404 C.3       1 UNK        -0.1800 
     19 N19        -6.1443   -9.5025   36.4573 N.ar      1 UNK        -0.6780 
     20 N20        -8.0077   -6.0173   39.9804 N.am      1 UNK        -0.1400 
     21 O21        -6.2916   -6.0615   41.4738 O.2       1 UNK        -0.5000 
     22 O22        -9.6272   -6.7641   36.7656 O.3       1 UNK        -0.6830 
     23 Cl23       -7.6710   -8.6781   42.9647 Cl        1 UNK        -0.1800 
     24 H24        -3.7950  -12.5179   35.7364 H         1 UNK         0.0650 
     25 H25        -4.6692  -11.0963   33.8601 H         1 UNK         0.1550 
     26 H26        -6.2565  -11.8829   39.6065 H         1 UNK         0.1150 
     27 H27        -7.0460  -11.1959   41.8490 H         1 UNK         0.1150 
     28 H28        -4.4590  -11.9532   38.0771 H         1 UNK         0.1550 
     29 H29        -6.0995   -7.7602   38.4006 H         1 UNK         0.1150 
     30 H30        -6.1720   -9.1763   34.4161 H         1 UNK         0.0120 
     31 H31        -8.0746   -2.8997   38.6406 H         1 UNK         0.0600 
     32 H32        -6.8441   -4.1152   38.4029 H         1 UNK         0.0600 
     33 H33        -7.5631   -4.0795   40.7696 H         1 UNK         0.0600 
     34 H34        -9.2245   -4.3391   40.3220 H         1 UNK         0.0600 
     35 H35        -9.9744   -6.3720   39.3596 H         1 UNK         0.0600 
     36 H36        -8.9532   -7.7478   39.1226 H         1 UNK         0.0600 
     37 H37        -9.8017   -4.3547   37.7199 H         1 UNK         0.0600 
     38 H38        -7.6849   -6.5114   37.3170 H         1 UNK         0.0600 
     39 H39        -9.0326   -4.5432   35.3740 H         1 UNK         0.0600 
     40 H40        -7.3544   -4.3988   35.8845 H         1 UNK         0.0600 
     41 H41        -8.4610   -3.0407   36.0835 H         1 UNK         0.0600 
     42 H42        -9.3977   -7.6727   36.6316 H         1 UNK         0.4180 
@<TRIPOS>BOND
     1    1    2 ar   
     2    1    5 ar   
     3    1   24 1    
     4    2    7 ar   
     5    2   25 1    
     6    3    4 ar   
     7    3    8 ar   
     8    3   26 1    
     9    4   10 ar   
    10    4   27 1    
    11    5   11 ar   
    12    5   28 1    
    13    6    8 ar   
    14    6    9 ar   
    15    6   29 1    
    16    7   19 ar   
    17    7   30 1    
    18    8   11 1    
    19    9   10 ar   
    20    9   12 1    
    21   10   23 1    
    22   11   19 ar   
    23   12   20 am   BACKBONE|DICT|INTERRES
    24   12   21 2    
    25   13   14 1    
    26   13   16 1    
    27   13   31 1    
    28   13   32 1    
    29   14   20 1    
    30   14   33 1    
    31   14   34 1    
    32   15   17 1    
    33   15   20 1    
    34   15   35 1    
    35   15   36 1    
    36   16   17 1    
    37   16   18 1    
    38   16   37 1    
    39   17   22 1    
    40   17   38 1    
    41   18   39 1    
    42   18   40 1    
    43   18   41 1    
    44   22   42 1    
@<TRIPOS>SUBSTRUCTURE
     1 UNK         1 GROUP             0       ****    0 ROOT    
@<TRIPOS>MOLECULE
ZINC89416839_178
43   45    1
SMALL
USER_CHARGES


@<TRIPOS>ATOM
      1 C1         -6.9377  -12.9297   35.4675 C.ar      1 UNK        -0.1150 
      2 C2         -7.4256  -12.3604   36.6592 C.ar      1 UNK        -0.1150 
      3 C3         -6.7294  -14.3191   35.3821 C.ar      1 UNK        -0.1150 
      4 C4         -8.4605  -13.1057   40.2639 C.2       1 UNK        -0.1540 
      5 C5         -8.9535  -12.0296   41.0536 C.2       1 UNK        -0.1540 
      6 C6         -7.4921  -14.5664   37.6803 C.ar      1 UNK        -0.1150 
      7 C7         -7.7067  -13.1711   37.7829 C.ar      1 UNK        -0.4134 
      8 C8         -7.0109  -15.1492   36.4871 C.ar      1 UNK         0.1500 
      9 C9         -8.2104  -12.5887   39.0236 C.2       1 UNK         0.5364 
     10 C10        -8.9954  -10.9321   40.2376 C.2       1 UNK         0.0453 
     11 C11        -9.3896   -9.5364   40.5461 C.2       1 UNK         0.5777 
     12 C12       -11.4486   -8.3631   37.6200 C.3       1 UNK        -0.1200 
     13 C13       -10.3603   -9.2489   38.2549 C.3       1 UNK        -0.0500 
     14 C14       -10.1374   -7.3142   39.8350 C.3       1 UNK        -0.0500 
     15 C15       -11.0312   -6.8859   37.4757 C.3       1 UNK        -0.0600 
     16 C16        -9.9975   -6.4856   38.5487 C.3       1 UNK         0.2050 
     17 C17       -10.5196   -6.5669   36.0615 C.3       1 UNK        -0.1800 
     18 C18        -6.7851  -16.6549   36.4071 C.3       1 UNK         0.4500 
     19 N19        -9.9113   -8.7480   39.5713 N.am      1 UNK        -0.1400 
     20 O20        -9.2349   -9.1398   41.7006 O.2       1 UNK        -0.5000 
     21 O21        -8.5183  -11.2630   39.0032 O.3       1 UNK        -0.1900 
     22 O22       -10.1472   -5.1169   38.8493 O.3       1 UNK        -0.6830 
     23 F23        -6.7892  -17.0800   35.1426 F         1 UNK        -0.2000 
     24 F24        -5.6079  -16.9547   36.9549 F         1 UNK        -0.2000 
     25 F25        -7.7427  -17.3048   37.0705 F         1 UNK        -0.2000 
     26 H26        -6.7206  -12.2997   34.6168 H         1 UNK         0.1150 
     27 H27        -7.5754  -11.2904   36.7018 H         1 UNK         0.1150 
     28 H28        -6.3517  -14.7507   34.4673 H         1 UNK         0.1150 
     29 H29        -8.2996  -14.1291   40.5672 H         1 UNK         0.1260 
     30 H30        -9.2455  -12.0434   42.0941 H         1 UNK         0.1260 
     31 H31        -7.6954  -15.2156   38.5196 H         1 UNK         0.1150 
     32 H32       -11.7607   -8.7744   36.6590 H         1 UNK         0.0600 
     33 H33       -12.3342   -8.4122   38.2560 H         1 UNK         0.0600 
     34 H34       -10.7665  -10.2578   38.3446 H         1 UNK         0.0600 
     35 H35        -9.4999   -9.3099   37.5864 H         1 UNK         0.0600 
     36 H36        -9.4211   -6.9337   40.5666 H         1 UNK         0.0600 
     37 H37       -11.1268   -7.1820   40.2754 H         1 UNK         0.0600 
     38 H38       -11.9399   -6.2999   37.6302 H         1 UNK         0.0600 
     39 H39        -8.9861   -6.6337   38.1643 H         1 UNK         0.0600 
     40 H40       -10.2630   -5.5122   35.9624 H         1 UNK         0.0600 
     41 H41       -11.2776   -6.7879   35.3093 H         1 UNK         0.0600 
     42 H42        -9.6311   -7.1507   35.8183 H         1 UNK         0.0600 
     43 H43        -9.9931   -4.6146   38.0634 H         1 UNK         0.4180 
@<TRIPOS>BOND
     1    1    2 ar   
     2    1    3 ar   
     3    1   26 1    
     4    2    7 ar   
     5    2   27 1    
     6    3    8 ar   
     7    3   28 1    
     8    4    5 1    
     9    4    9 2    
    10    4   29 1    
    11    5   10 2    
    12    5   30 1    
    13    6    7 ar   
    14    6    8 ar   
    15    6   31 1    
    16    7    9 1    
    17    8   18 1    
    18    9   21 1    
    19   10   11 1    
    20   10   21 1    
    21   11   19 am   BACKBONE|DICT|INTERRES
    22   11   20 2    
    23   12   13 1    
    24   12   15 1    
    25   12   32 1    
    26   12   33 1    
    27   13   19 1    
    28   13   34 1    
    29   13   35 1    
    30   14   16 1    
    31   14   19 1    
    32   14   36 1    
    33   14   37 1    
    34   15   16 1    
    35   15   17 1    
    36   15   38 1    
    37   16   22 1    
    38   16   39 1    
    39   17   40 1    
    40   17   41 1    
    41   17   42 1    
    42   18   23 1    
    43   18   24 1    
    44   18   25 1    
    45   22   43 1    
@<TRIPOS>SUBSTRUCTURE
     1 UNK         1 GROUP             0       ****    0 ROOT    
@<TRIPOS>MOLECULE
ZINC89424743_2
42   45    1
SMALL
USER_CHARGES


@<TRIPOS>ATOM
      1 C1         -5.7090   -9.7854   36.3410 C.ar      1 UNK        -0.1150 
      2 C2         -5.4770  -10.4477   35.1138 C.ar      1 UNK        -0.1150 
      3 C3         -5.3730  -11.8777   37.5807 C.ar      1 UNK        -0.1150 
      4 C4         -6.1485   -9.0044   41.1548 C.2       1 UNK        -0.3376 
      5 C5         -5.6597  -10.4882   37.5773 C.ar      1 UNK         0.0000 
      6 C6         -5.1981  -11.8217   35.1565 C.ar      1 UNK         0.0850 
      7 C7         -5.1478  -12.5119   36.3490 C.ar      1 UNK         0.0850 
      8 C8         -6.6031   -8.0960   40.2310 C.2       1 UNK         0.1693 
      9 C9         -5.9152   -9.7686   38.8265 C.2       1 UNK         0.3009 
     10 C10        -7.1092   -6.7342   40.6006 C.2       1 UNK         0.6150 
     11 C11        -8.4672   -4.2291   38.6524 C.3       1 UNK        -0.1200 
     12 C12        -8.6366   -4.8644   40.0472 C.3       1 UNK        -0.0500 
     13 C13        -9.1077   -7.0366   39.0891 C.3       1 UNK        -0.0500 
     14 C14        -4.7350  -13.9294   34.7127 C.3       1 UNK         0.2000 
     15 C15        -9.2298   -5.0172   37.5624 C.3       1 UNK        -0.0600 
     16 C16        -8.9132   -6.5299   37.6496 C.3       1 UNK         0.2050 
     17 C17        -8.9406   -4.4469   36.1650 C.3       1 UNK        -0.1800 
     18 N18        -6.4234   -8.5351   38.9101 N.2       1 UNK        -0.4803 
     19 N19        -8.2203   -6.2707   39.9727 N.am      1 UNK        -0.1400 
     20 O20        -6.5261   -6.0827   41.4678 O.2       1 UNK        -0.5000 
     21 O21        -4.9474  -12.6700   34.1281 O.3       1 UNK        -0.2850 
     22 O22        -4.8642  -13.8166   36.1071 O.3       1 UNK        -0.2850 
     23 O23        -9.7839   -7.2434   36.7992 O.3       1 UNK        -0.6830 
     24 S24        -5.5645  -10.4668   40.4092 S.3       1 UNK         0.0010 
     25 H25        -5.9231   -8.7263   36.3323 H         1 UNK         0.1150 
     26 H26        -5.5122   -9.9178   34.1735 H         1 UNK         0.1150 
     27 H27        -5.3303  -12.4531   38.4926 H         1 UNK         0.1150 
     28 H28        -6.1226   -8.8834   42.2279 H         1 UNK         0.2317 
     29 H29        -8.8096   -3.1937   38.6737 H         1 UNK         0.0600 
     30 H30        -7.4051   -4.1947   38.4039 H         1 UNK         0.0600 
     31 H31        -8.0630   -4.2945   40.7806 H         1 UNK         0.0600 
     32 H32        -9.6765   -4.8040   40.3715 H         1 UNK         0.0600 
     33 H33       -10.1414   -6.8790   39.4014 H         1 UNK         0.0600 
     34 H34        -8.9586   -8.1135   39.1578 H         1 UNK         0.0600 
     35 H35        -5.4721  -14.6379   34.3327 H         1 UNK         0.1000 
     36 H36        -3.7336  -14.2833   34.4649 H         1 UNK         0.1000 
     37 H37       -10.2963   -4.8891   37.7571 H         1 UNK         0.0600 
     38 H38        -7.8862   -6.7117   37.3269 H         1 UNK         0.0600 
     39 H39        -9.5293   -4.9598   35.4036 H         1 UNK         0.0600 
     40 H40        -7.8890   -4.5573   35.8996 H         1 UNK         0.0600 
     41 H41        -9.1914   -3.3877   36.1115 H         1 UNK         0.0600 
     42 H42        -9.4729   -8.1340   36.7277 H         1 UNK         0.4180 
@<TRIPOS>BOND
     1    1    2 ar   
     2    1    5 ar   
     3    1   25 1    
     4    2    6 ar   
     5    2   26 1    
     6    3    5 ar   
     7    3    7 ar   
     8    3   27 1    
     9    4    8 2    
    10    4   24 1    
    11    4   28 1    
    12    5    9 1    
    13    6    7 ar   
    14    6   21 1    
    15    7   22 1    
    16    8   10 1    
    17    8   18 1    
    18    9   18 2    
    19    9   24 1    
    20   10   19 am   BACKBONE|DICT|INTERRES
    21   10   20 2    
    22   11   12 1    
    23   11   15 1    
    24   11   29 1    
    25   11   30 1    
    26   12   19 1    
    27   12   31 1    
    28   12   32 1    
    29   13   16 1    
    30   13   19 1    
    31   13   33 1    
    32   13   34 1    
    33   14   21 1    
    34   14   22 1    
    35   14   35 1    
    36   14   36 1    
    37   15   16 1    
    38   15   17 1    
    39   15   37 1    
    40   16   23 1    
    41   16   38 1    
    42   17   39 1    
    43   17   40 1    
    44   17   41 1    
    45   23   42 1    
@<TRIPOS>SUBSTRUCTURE
     1 UNK         1 GROUP             0       ****    0 ROOT    
@<TRIPOS>MOLECULE
ZINC89427625_62
40   42    1
SMALL
USER_CHARGES


@<TRIPOS>ATOM
      1 C1         -6.1394  -11.6843   35.3264 C.ar      1 UNK        -0.1150 
      2 C2         -6.4544  -10.9220   36.4686 C.ar      1 UNK        -0.1150 
      3 C3         -5.9470  -13.0743   35.4404 C.ar      1 UNK        -0.1150 
      4 C4         -7.1573  -10.0466   40.9686 C.ar      1 UNK        -0.3200 
      5 C5         -6.3859  -12.9386   37.8364 C.ar      1 UNK        -0.1150 
      6 C6         -6.7221  -11.1023   40.2192 C.ar      1 UNK         0.0360 
      7 C7         -6.5779  -11.5418   37.7349 C.ar      1 UNK         0.0731 
      8 C8         -6.0719  -13.6993   36.6946 C.ar      1 UNK         0.2200 
      9 C9         -7.6056   -9.0964   40.0073 C.ar      1 UNK         0.2230 
     10 C10        -8.1093   -7.7457   40.4539 C.2       1 UNK         0.6150 
     11 C11        -9.7338   -7.1733   37.4556 C.3       1 UNK        -0.1200 
     12 C12       -10.0281   -7.8443   38.8090 C.3       1 UNK        -0.0500 
     13 C13        -9.5832   -5.8102   40.0412 C.3       1 UNK        -0.0500 
     14 C14        -9.9668   -5.6468   37.5247 C.3       1 UNK        -0.0600 
     15 C15        -9.2583   -5.0264   38.7552 C.3       1 UNK         0.2050 
     16 C16        -9.5446   -4.9674   36.2122 C.3       1 UNK        -0.1800 
     17 N17        -7.4126   -9.5303   38.7662 N.2       1 UNK        -0.5310 
     18 N18        -6.8919  -10.7731   38.8867 N.pl3     1 UNK         0.1189 
     19 N19        -9.1909   -7.2081   39.8346 N.am      1 UNK        -0.1400 
     20 O20        -7.5293   -7.1767   41.3813 O.2       1 UNK        -0.5000 
     21 O21        -9.6960   -3.6944   38.9160 O.3       1 UNK        -0.6830 
     22 F22        -5.8906  -15.0360   36.8045 F         1 UNK        -0.2200 
     23 H23        -6.0451  -11.2012   34.3647 H         1 UNK         0.1150 
     24 H24        -6.5967   -9.8549   36.3694 H         1 UNK         0.1150 
     25 H25        -5.7051  -13.6648   34.5688 H         1 UNK         0.1150 
     26 H26        -7.1519   -9.9489   42.0442 H         1 UNK         0.1500 
     27 H27        -6.4848  -13.4483   38.7818 H         1 UNK         0.1150 
     28 H28        -6.2945  -12.0436   40.5300 H         1 UNK         0.1350 
     29 H29        -8.7015   -7.3810   37.1682 H         1 UNK         0.0600 
     30 H30       -10.3619   -7.6132   36.6804 H         1 UNK         0.0600 
     31 H31       -11.0795   -7.7099   39.0675 H         1 UNK         0.0600 
     32 H32        -9.8932   -8.9235   38.7459 H         1 UNK         0.0600 
     33 H33        -9.0825   -5.3564   40.8980 H         1 UNK         0.0600 
     34 H34       -10.6507   -5.7603   40.2612 H         1 UNK         0.0600 
     35 H35       -11.0402   -5.4899   37.6477 H         1 UNK         0.0600 
     36 H36        -8.1783   -5.0230   38.5943 H         1 UNK         0.0600 
     37 H37        -9.7636   -3.8993   36.2354 H         1 UNK         0.0600 
     38 H38       -10.0770   -5.3907   35.3604 H         1 UNK         0.0600 
     39 H39        -8.4757   -5.0823   36.0308 H         1 UNK         0.0600 
     40 H40        -9.1627   -3.2754   39.5752 H         1 UNK         0.4180 
@<TRIPOS>BOND
     1    1    2 ar   
     2    1    3 ar   
     3    1   23 1    
     4    2    7 ar   
     5    2   24 1    
     6    3    8 ar   
     7    3   25 1    
     8    4    6 ar   
     9    4    9 ar   
    10    4   26 1    
    11    5    7 ar   
    12    5    8 ar   
    13    5   27 1    
    14    6   18 ar   
    15    6   28 1    
    16    7   18 1    
    17    8   22 1    
    18    9   10 1    
    19    9   17 ar   
    20   10   19 am   BACKBONE|DICT|INTERRES
    21   10   20 2    
    22   11   12 1    
    23   11   14 1    
    24   11   29 1    
    25   11   30 1    
    26   12   19 1    
    27   12   31 1    
    28   12   32 1    
    29   13   15 1    
    30   13   19 1    
    31   13   33 1    
    32   13   34 1    
    33   14   15 1    
    34   14   16 1    
    35   14   35 1    
    36   15   21 1    
    37   15   36 1    
    38   16   37 1    
    39   16   38 1    
    40   16   39 1    
    41   17   18 ar   
    42   21   40 1    
@<TRIPOS>SUBSTRUCTURE
     1 UNK         1 GROUP             0       ****    0 ROOT    
@<TRIPOS>MOLECULE
ZINC89430932_23
45   47    1
SMALL
USER_CHARGES


@<TRIPOS>ATOM
      1 C1         -6.6158   -9.8363   40.8490 C.ar      1 UNK         0.2270 
      2 C2         -6.1003  -10.4822   39.7158 C.ar      1 UNK        -0.4470 
      3 C3         -4.2701  -10.9499   35.5172 C.ar      1 UNK        -0.3200 
      4 C4         -6.8289   -8.4495   40.8055 C.ar      1 UNK        -0.1120 
      5 C5         -6.5125   -7.7651   39.6073 C.ar      1 UNK         0.3658 
      6 C6         -5.0063  -12.0318   36.0676 C.ar      1 UNK         0.2230 
      7 C7         -4.4687   -9.9213   36.3966 C.ar      1 UNK         0.0560 
      8 C8         -5.8033   -9.7288   38.5611 C.ar      1 UNK         0.6075 
      9 C9         -6.7017   -6.2767   39.4872 C.2       1 UNK         0.6192 
     10 C10       -10.4526   -5.9420   38.9238 C.3       1 UNK        -0.1200 
     11 C11        -9.1205   -6.7039   39.0680 C.3       1 UNK        -0.0500 
     12 C12        -8.2504   -4.3715   39.2756 C.3       1 UNK        -0.0500 
     13 C13       -10.6571   -4.8880   40.0316 C.3       1 UNK        -0.0600 
     14 C14        -9.3754   -4.0478   40.2733 C.3       1 UNK         0.2050 
     15 C15        -5.1590  -13.4247   35.5380 C.3       1 UNK        -0.0650 
     16 C16        -3.9217   -8.5304   36.3439 C.3       1 UNK        -0.0650 
     17 C17       -11.1655   -5.5221   41.3363 C.3       1 UNK        -0.1800 
     18 N18        -6.0151   -8.3972   38.5205 N.ar      1 UNK        -0.6780 
     19 N19        -5.6086  -11.7000   37.1929 N.2       1 UNK        -0.5310 
     20 N20        -5.2938  -10.3985   37.4109 N.pl3     1 UNK         0.0695 
     21 N21        -7.9638   -5.8149   39.3005 N.am      1 UNK        -0.1400 
     22 O22        -5.7173   -5.5381   39.5647 O.2       1 UNK        -0.5000 
     23 O23        -9.6974   -2.6778   40.1791 O.3       1 UNK        -0.6830 
     24 Cl24       -7.4583   -7.6433   42.2020 Cl        1 UNK        -0.1800 
     25 H25        -6.8452  -10.3988   41.7420 H         1 UNK         0.0650 
     26 H26        -5.9313  -11.5491   39.7252 H         1 UNK         0.1550 
     27 H27        -3.6811  -10.9323   34.6123 H         1 UNK         0.1500 
     28 H28       -10.4683   -5.4398   37.9551 H         1 UNK         0.0600 
     29 H29       -11.2888   -6.6418   38.8991 H         1 UNK         0.0600 
     30 H30        -9.2220   -7.3993   39.9014 H         1 UNK         0.0600 
     31 H31        -8.9463   -7.3075   38.1750 H         1 UNK         0.0600 
     32 H32        -8.5336   -4.0854   38.2616 H         1 UNK         0.0600 
     33 H33        -7.3747   -3.7672   39.5180 H         1 UNK         0.0600 
     34 H34       -11.4529   -4.2285   39.6792 H         1 UNK         0.0600 
     35 H35        -8.9984   -4.2299   41.2820 H         1 UNK         0.0600 
     36 H36        -4.8436  -14.1605   36.2777 H         1 UNK         0.0600 
     37 H37        -6.1981  -13.6323   35.2826 H         1 UNK         0.0600 
     38 H38        -4.5581  -13.5748   34.6415 H         1 UNK         0.0600 
     39 H39        -4.7106   -7.8121   36.1201 H         1 UNK         0.0600 
     40 H40        -3.4692   -8.2511   37.2954 H         1 UNK         0.0600 
     41 H41        -3.1575   -8.4396   35.5726 H         1 UNK         0.0600 
     42 H42       -11.3672   -4.7549   42.0848 H         1 UNK         0.0600 
     43 H43       -10.4361   -6.2138   41.7586 H         1 UNK         0.0600 
     44 H44       -12.0932   -6.0711   41.1743 H         1 UNK         0.0600 
     45 H45        -8.9503   -2.1669   40.4538 H         1 UNK         0.4180 
@<TRIPOS>BOND
     1    1    2 ar   
     2    1    4 ar   
     3    1   25 1    
     4    2    8 ar   
     5    2   26 1    
     6    3    6 ar   
     7    3    7 ar   
     8    3   27 1    
     9    4    5 ar   
    10    4   24 1    
    11    5    9 1    
    12    5   18 ar   
    13    6   15 1    
    14    6   19 ar   
    15    7   16 1    
    16    7   20 ar   
    17    8   18 ar   
    18    8   20 1    
    19    9   21 am   BACKBONE|DICT|INTERRES
    20    9   22 2    
    21   10   11 1    
    22   10   13 1    
    23   10   28 1    
    24   10   29 1    
    25   11   21 1    
    26   11   30 1    
    27   11   31 1    
    28   12   14 1    
    29   12   21 1    
    30   12   32 1    
    31   12   33 1    
    32   13   14 1    
    33   13   17 1    
    34   13   34 1    
    35   14   23 1    
    36   14   35 1    
    37   15   36 1    
    38   15   37 1    
    39   15   38 1    
    40   16   39 1    
    41   16   40 1    
    42   16   41 1    
    43   17   42 1    
    44   17   43 1    
    45   17   44 1    
    46   19   20 ar   
    47   23   45 1    
@<TRIPOS>SUBSTRUCTURE
     1 UNK         1 GROUP             0       ****    0 ROOT    
@<TRIPOS>MOLECULE
ZINC89432277_0
46   48    1
SMALL
USER_CHARGES


@<TRIPOS>ATOM
      1 C1         -5.3076  -11.8403   37.7605 C.ar      1 UNK        -0.1150 
      2 C2         -5.7684   -9.7326   36.6392 C.ar      1 UNK        -0.1150 
      3 C3         -5.0511  -12.4468   36.5157 C.ar      1 UNK        -0.1150 
      4 C4         -5.5110  -10.3367   35.3940 C.ar      1 UNK        -0.1150 
      5 C5         -5.7233  -10.2340   40.4219 C.2       1 UNK        -0.1540 
      6 C6         -6.2629   -9.2014   41.2406 C.2       1 UNK        -0.1540 
      7 C7         -5.6696  -10.4767   37.8376 C.ar      1 UNK        -0.4134 
      8 C8         -5.1509  -11.6966   35.3274 C.ar      1 UNK        -0.1150 
      9 C9         -5.9491   -9.8559   39.1278 C.2       1 UNK         0.5364 
     10 C10        -6.8096   -8.2781   40.3916 C.2       1 UNK         0.0453 
     11 C11        -7.4766   -6.9878   40.6762 C.2       1 UNK         0.5777 
     12 C12        -8.5702   -4.5112   38.5321 C.3       1 UNK        -0.1200 
     13 C13        -8.9564   -5.1727   39.8708 C.3       1 UNK        -0.0500 
     14 C14        -9.1520   -7.3484   38.8276 C.3       1 UNK        -0.0500 
     15 C15        -9.0848   -5.3166   37.3160 C.3       1 UNK        -0.0600 
     16 C16        -8.7230   -6.8157   37.4495 C.3       1 UNK         0.2050 
     17 C17        -8.5697   -4.7148   35.9988 C.3       1 UNK        -0.1800 
     18 C18        -6.1668  -12.8222   33.3044 C.3       1 UNK        -0.1800 
     19 C19        -4.8784  -12.3470   33.9851 C.3       1 UNK        -0.0050 
     20 N20        -8.4725   -6.5582   39.8612 N.am      1 UNK        -0.1400 
     21 O21        -7.0935   -6.3381   41.6479 O.2       1 UNK        -0.5000 
     22 O22        -6.5869   -8.6557   39.1013 O.3       1 UNK        -0.1900 
     23 O23        -9.3917   -7.5539   36.4506 O.3       1 UNK        -0.6830 
     24 H24        -5.2295  -12.4385   38.6569 H         1 UNK         0.1150 
     25 H25        -6.0350   -8.6860   36.6619 H         1 UNK         0.1150 
     26 H26        -4.7795  -13.4919   36.4763 H         1 UNK         0.1150 
     27 H27        -5.5903   -9.7526   34.4885 H         1 UNK         0.1150 
     28 H28        -5.2247  -11.1383   40.7352 H         1 UNK         0.1260 
     29 H29        -6.2625   -9.1342   42.3191 H         1 UNK         0.1260 
     30 H30        -8.9613   -3.4937   38.4981 H         1 UNK         0.0600 
     31 H31        -7.4839   -4.4226   38.4796 H         1 UNK         0.0600 
     32 H32        -8.5466   -4.5907   40.6984 H         1 UNK         0.0600 
     33 H33       -10.0389   -5.1604   40.0053 H         1 UNK         0.0600 
     34 H34       -10.2308   -7.2344   38.9471 H         1 UNK         0.0600 
     35 H35        -8.9778   -8.4197   38.9196 H         1 UNK         0.0600 
     36 H36       -10.1736   -5.2371   37.3120 H         1 UNK         0.0600 
     37 H37        -7.6476   -6.9465   37.3166 H         1 UNK         0.0600 
     38 H38        -8.9893   -5.2371   35.1382 H         1 UNK         0.0600 
     39 H39        -7.4839   -4.7813   35.9280 H         1 UNK         0.0600 
     40 H40        -8.8482   -3.6647   35.9096 H         1 UNK         0.0600 
     41 H41        -6.6877  -13.5550   33.9211 H         1 UNK         0.0600 
     42 H42        -5.9523  -13.2865   32.3419 H         1 UNK         0.0600 
     43 H43        -6.8486  -11.9897   33.1290 H         1 UNK         0.0600 
     44 H44        -4.3575  -11.6353   33.3431 H         1 UNK         0.0600 
     45 H45        -4.1977  -13.1882   34.1220 H         1 UNK         0.0600 
     46 H46        -9.0099   -8.4189   36.3970 H         1 UNK         0.4180 
@<TRIPOS>BOND
     1    1    3 ar   
     2    1    7 ar   
     3    1   24 1    
     4    2    4 ar   
     5    2    7 ar   
     6    2   25 1    
     7    3    8 ar   
     8    3   26 1    
     9    4    8 ar   
    10    4   27 1    
    11    5    6 1    
    12    5    9 2    
    13    5   28 1    
    14    6   10 2    
    15    6   29 1    
    16    7    9 1    
    17    8   19 1    
    18    9   22 1    
    19   10   11 1    
    20   10   22 1    
    21   11   20 am   BACKBONE|DICT|INTERRES
    22   11   21 2    
    23   12   13 1    
    24   12   15 1    
    25   12   30 1    
    26   12   31 1    
    27   13   20 1    
    28   13   32 1    
    29   13   33 1    
    30   14   16 1    
    31   14   20 1    
    32   14   34 1    
    33   14   35 1    
    34   15   16 1    
    35   15   17 1    
    36   15   36 1    
    37   16   23 1    
    38   16   37 1    
    39   17   38 1    
    40   17   39 1    
    41   17   40 1    
    42   18   19 1    
    43   18   41 1    
    44   18   42 1    
    45   18   43 1    
    46   19   44 1    
    47   19   45 1    
    48   23   46 1    
@<TRIPOS>SUBSTRUCTURE
     1 UNK         1 GROUP             0       ****    0 ROOT    
@<TRIPOS>MOLECULE
ZINC89432279_42
46   48    1
SMALL
USER_CHARGES


@<TRIPOS>ATOM
      1 C1         -7.0384  -14.1107   37.8804 C.ar      1 UNK        -0.1150 
      2 C2         -7.2736  -12.0304   36.6451 C.ar      1 UNK        -0.1150 
      3 C3         -6.6592  -14.7721   36.6965 C.ar      1 UNK        -0.1150 
      4 C4         -6.8940  -12.6896   35.4603 C.ar      1 UNK        -0.1150 
      5 C5         -7.8682  -12.4668   40.3979 C.2       1 UNK        -0.1540 
      6 C6         -8.3048  -11.3344   41.1406 C.2       1 UNK        -0.1540 
      7 C7         -7.3502  -12.7321   37.8705 C.ar      1 UNK        -0.4134 
      8 C8         -6.5838  -14.0633   35.4817 C.ar      1 UNK        -0.1150 
      9 C9         -7.7461  -12.0530   39.1008 C.2       1 UNK         0.5364 
     10 C10        -8.4427  -10.3086   40.2456 C.2       1 UNK         0.0453 
     11 C11        -8.8297   -8.8959   40.4766 C.2       1 UNK         0.5777 
     12 C12       -11.0921   -7.9392   37.6160 C.3       1 UNK        -0.1200 
     13 C13        -9.9722   -8.7854   38.2501 C.3       1 UNK        -0.0500 
     14 C14        -9.6482   -6.7358   39.6572 C.3       1 UNK        -0.0500 
     15 C15       -10.6714   -6.4850   37.3246 C.3       1 UNK        -0.0600 
     16 C16        -9.5817   -6.0064   38.3067 C.3       1 UNK         0.2050 
     17 C17       -10.2291   -6.2942   35.8649 C.3       1 UNK        -0.1800 
     18 C18        -7.3889  -15.3317   33.4493 C.3       1 UNK        -0.1800 
     19 C19        -6.1783  -14.7749   34.2057 C.3       1 UNK        -0.0050 
     20 N20        -9.4300   -8.1849   39.4873 N.am      1 UNK        -0.1400 
     21 O21        -8.5958   -8.4124   41.5838 O.2       1 UNK        -0.5000 
     22 O22        -8.0787  -10.7365   39.0028 O.3       1 UNK        -0.1900 
     23 O23        -9.7189   -4.6184   38.5100 O.3       1 UNK        -0.6830 
     24 H24        -7.0877  -14.6788   38.7978 H         1 UNK         0.1150 
     25 H25        -7.5044  -10.9757   36.6006 H         1 UNK         0.1150 
     26 H26        -6.4276  -15.8271   36.7242 H         1 UNK         0.1150 
     27 H27        -6.8429  -12.1365   34.5336 H         1 UNK         0.1150 
     28 H28        -7.6610  -13.4603   40.7648 H         1 UNK         0.1260 
     29 H29        -8.4972  -11.2650   42.2017 H         1 UNK         0.1260 
     30 H30       -11.4692   -8.4231   36.7142 H         1 UNK         0.0600 
     31 H31       -11.9347   -7.9240   38.3095 H         1 UNK         0.0600 
     32 H32       -10.3788   -9.7780   38.4517 H         1 UNK         0.0600 
     33 H33        -9.1603   -8.9133   37.5324 H         1 UNK         0.0600 
     34 H34        -8.8949   -6.3004   40.3172 H         1 UNK         0.0600 
     35 H35       -10.6124   -6.5712   40.1401 H         1 UNK         0.0600 
     36 H36       -11.5669   -5.8777   37.4730 H         1 UNK         0.0600 
     37 H37        -8.5922   -6.1848   37.8803 H         1 UNK         0.0600 
     38 H38        -9.3612   -6.9108   35.6282 H         1 UNK         0.0600 
     39 H39        -9.9651   -5.2558   35.6637 H         1 UNK         0.0600 
     40 H40       -11.0272   -6.5658   35.1733 H         1 UNK         0.0600 
     41 H41        -7.9375  -16.0479   34.0616 H         1 UNK         0.0600 
     42 H42        -7.0796  -15.8401   32.5361 H         1 UNK         0.0600 
     43 H43        -8.0780  -14.5339   33.1716 H         1 UNK         0.0600 
     44 H44        -5.6263  -14.0827   33.5688 H         1 UNK         0.0600 
     45 H45        -5.4870  -15.5827   34.4486 H         1 UNK         0.0600 
     46 H46        -9.6103   -4.1783   37.6803 H         1 UNK         0.4180 
@<TRIPOS>BOND
     1    1    3 ar   
     2    1    7 ar   
     3    1   24 1    
     4    2    4 ar   
     5    2    7 ar   
     6    2   25 1    
     7    3    8 ar   
     8    3   26 1    
     9    4    8 ar   
    10    4   27 1    
    11    5    6 1    
    12    5    9 2    
    13    5   28 1    
    14    6   10 2    
    15    6   29 1    
    16    7    9 1    
    17    8   19 1    
    18    9   22 1    
    19   10   11 1    
    20   10   22 1    
    21   11   20 am   BACKBONE|DICT|INTERRES
    22   11   21 2    
    23   12   13 1    
    24   12   15 1    
    25   12   30 1    
    26   12   31 1    
    27   13   20 1    
    28   13   32 1    
    29   13   33 1    
    30   14   16 1    
    31   14   20 1    
    32   14   34 1    
    33   14   35 1    
    34   15   16 1    
    35   15   17 1    
    36   15   36 1    
    37   16   23 1    
    38   16   37 1    
    39   17   38 1    
    40   17   39 1    
    41   17   40 1    
    42   18   19 1    
    43   18   41 1    
    44   18   42 1    
    45   18   43 1    
    46   19   44 1    
    47   19   45 1    
    48   23   46 1    
@<TRIPOS>SUBSTRUCTURE
     1 UNK         1 GROUP             0       ****    0 ROOT    
@<TRIPOS>MOLECULE
ZINC89534617_7
41   43    1
SMALL
USER_CHARGES


@<TRIPOS>ATOM
      1 C1         -6.6707   -3.9942   39.5145 C.ar      1 UNK        -0.1150 
      2 C2         -7.7683   -5.9929   38.6590 C.ar      1 UNK        -0.1150 
      3 C3         -4.7564  -10.1242   38.1643 C.ar      1 UNK        -0.1150 
      4 C4         -4.4770   -8.0833   36.8377 C.ar      1 UNK        -0.1150 
      5 C5         -6.8816   -5.3861   39.5741 C.ar      1 UNK        -0.1150 
      6 C6         -5.1524   -9.3196   39.2471 C.ar      1 UNK        -0.1150 
      7 C7         -8.1670   -3.8350   37.5954 C.ar      1 UNK        -0.1150 
      8 C8         -5.2551   -7.9353   39.1335 C.ar      1 UNK        -0.0383 
      9 C9         -7.3022   -3.2066   38.5226 C.ar      1 UNK         0.0850 
     10 C10        -8.4010   -5.2295   37.6495 C.ar      1 UNK         0.0850 
     11 C11        -4.4321   -9.4916   36.9456 C.ar      1 UNK         0.2200 
     12 C12        -4.8677   -7.2887   37.9365 C.ar      1 UNK         0.2200 
     13 C13        -6.2256   -6.1894   40.6618 C.2       1 UNK         0.6150 
     14 C14        -5.4680   -9.7743   40.6441 C.3       1 UNK        -0.0050 
     15 C15        -5.6095   -8.4399   41.4106 C.3       1 UNK        -0.0500 
     16 C16        -8.8452   -3.0004   36.5195 C.3       1 UNK        -0.0650 
     17 C17        -6.2520   -1.1955   39.3245 C.3       1 UNK         0.1100 
     18 C18        -9.4231   -7.1842   36.6833 C.3       1 UNK         0.1100 
     19 N19        -5.6779   -7.3968   40.3770 N.am      1 UNK        -0.0317 
     20 O20        -6.2195   -5.7372   41.8076 O.2       1 UNK        -0.5000 
     21 O21        -7.1182   -1.8437   38.4048 O.3       1 UNK        -0.2850 
     22 O22        -9.2434   -5.7760   36.7028 O.3       1 UNK        -0.2850 
     23 F23        -4.0509  -10.2376   35.8828 F         1 UNK        -0.2200 
     24 F24        -4.8152   -5.9416   37.8350 F         1 UNK        -0.2200 
     25 H25        -6.0100   -3.5540   40.2461 H         1 UNK         0.1150 
     26 H26        -7.9434   -7.0538   38.7437 H         1 UNK         0.1150 
     27 H27        -4.6875  -11.1984   38.2585 H         1 UNK         0.1150 
     28 H28        -4.1903   -7.6088   35.9115 H         1 UNK         0.1150 
     29 H29        -6.4014  -10.3388   40.6458 H         1 UNK         0.0600 
     30 H30        -4.6746  -10.4015   41.0528 H         1 UNK         0.0600 
     31 H31        -6.4840   -8.4432   42.0641 H         1 UNK         0.0600 
     32 H32        -4.7307   -8.2525   42.0294 H         1 UNK         0.0600 
     33 H33        -8.2044   -2.9376   35.6406 H         1 UNK         0.0600 
     34 H34        -9.8000   -3.4308   36.2188 H         1 UNK         0.0600 
     35 H35        -9.0483   -1.9884   36.8693 H         1 UNK         0.0600 
     36 H36        -6.2174   -0.1304   39.0958 H         1 UNK         0.0300 
     37 H37        -5.2339   -1.5807   39.2523 H         1 UNK         0.0300 
     38 H38        -6.6081   -1.3004   40.3502 H         1 UNK         0.0300 
     39 H39       -10.0698   -7.4508   35.8475 H         1 UNK         0.0300 
     40 H40        -9.9033   -7.5368   37.5968 H         1 UNK         0.0300 
     41 H41        -8.4750   -7.7062   36.5455 H         1 UNK         0.0300 
@<TRIPOS>BOND
     1    1    5 ar   
     2    1    9 ar   
     3    1   25 1    
     4    2    5 ar   
     5    2   10 ar   
     6    2   26 1    
     7    3    6 ar   
     8    3   11 ar   
     9    3   27 1    
    10    4   11 ar   
    11    4   12 ar   
    12    4   28 1    
    13    5   13 1    
    14    6    8 ar   
    15    6   14 1    
    16    7    9 ar   
    17    7   10 ar   
    18    7   16 1    
    19    8   12 ar   
    20    8   19 1    
    21    9   21 1    
    22   10   22 1    
    23   11   23 1    
    24   12   24 1    
    25   13   19 am   BACKBONE|DICT|INTERRES
    26   13   20 2    
    27   14   15 1    
    28   14   29 1    
    29   14   30 1    
    30   15   19 1    
    31   15   31 1    
    32   15   32 1    
    33   16   33 1    
    34   16   34 1    
    35   16   35 1    
    36   17   21 1    
    37   17   36 1    
    38   17   37 1    
    39   17   38 1    
    40   18   22 1    
    41   18   39 1    
    42   18   40 1    
    43   18   41 1    
@<TRIPOS>SUBSTRUCTURE
     1 UNK         1 GROUP             0       ****    0 ROOT    
@<TRIPOS>MOLECULE
ZINC89986616_59
44   46    1
SMALL
USER_CHARGES


@<TRIPOS>ATOM
      1 C1         -4.5198  -12.3927   35.9184 C.ar      1 UNK        -0.1150 
      2 C2         -4.6116  -13.6871   36.4612 C.ar      1 UNK        -0.1150 
      3 C3         -5.0879  -11.3007   36.6029 C.ar      1 UNK        -0.1150 
      4 C4         -5.2683  -13.8838   37.6901 C.ar      1 UNK        -0.1150 
      5 C5         -7.3347  -10.3291   39.4535 C.ar      1 UNK         0.0360 
      6 C6         -5.7564  -11.4852   37.8377 C.ar      1 UNK         0.0731 
      7 C7         -7.5610   -9.0232   39.7875 C.ar      1 UNK        -0.0200 
      8 C8         -5.8367  -12.7942   38.3791 C.ar      1 UNK         0.2200 
      9 C9         -6.6407   -8.2951   38.9693 C.ar      1 UNK         0.2230 
     10 C10        -6.5352   -6.7913   39.0149 C.2       1 UNK         0.6150 
     11 C11       -10.0127   -6.2247   38.5615 C.3       1 UNK        -0.1200 
     12 C12       -10.0992   -4.7062   38.7896 C.3       1 UNK        -0.1200 
     13 C13        -8.7319   -6.5939   37.7906 C.3       1 UNK        -0.0500 
     14 C14        -7.5838   -4.5930   38.5825 C.3       1 UNK        -0.0500 
     15 C15        -8.8066   -4.1510   39.4130 C.3       1 UNK         0.1700 
     16 C16        -8.3700   -0.5764   40.2723 C.3       1 UNK        -0.1800 
     17 C17        -8.1115   -2.0799   40.3765 C.3       1 UNK         0.1400 
     18 N18        -5.9159   -9.1063   38.2093 N.2       1 UNK        -0.5310 
     19 N19        -6.3293  -10.3631   38.5028 N.pl3     1 UNK         0.1189 
     20 N20        -7.5587   -6.0608   38.5024 N.am      1 UNK        -0.1400 
     21 O21        -5.5225   -6.2767   39.4955 O.2       1 UNK        -0.5000 
     22 O22        -8.4625   -8.5379   40.6971 O.3       1 UNK        -0.5850 
     23 O23        -8.9302   -2.7362   39.4207 O.3       1 UNK        -0.4000 
     24 F24        -6.4472  -13.0325   39.5648 F         1 UNK        -0.2200 
     25 H25        -4.0127  -12.2333   34.9773 H         1 UNK         0.1150 
     26 H26        -4.1761  -14.5270   35.9390 H         1 UNK         0.1150 
     27 H27        -5.0086  -10.3133   36.1709 H         1 UNK         0.1150 
     28 H28        -5.3361  -14.8750   38.1136 H         1 UNK         0.1150 
     29 H29        -7.8144  -11.2265   39.8117 H         1 UNK         0.1350 
     30 H30       -10.0231   -6.7358   39.5245 H         1 UNK         0.0600 
     31 H31       -10.8923   -6.5723   38.0192 H         1 UNK         0.0600 
     32 H32       -10.2781   -4.2099   37.8349 H         1 UNK         0.0600 
     33 H33       -10.9534   -4.4671   39.4237 H         1 UNK         0.0600 
     34 H34        -8.6958   -7.6710   37.6320 H         1 UNK         0.0600 
     35 H35        -8.7618   -6.1581   36.7909 H         1 UNK         0.0600 
     36 H36        -7.6424   -4.1784   37.5757 H         1 UNK         0.0600 
     37 H37        -6.6690   -4.1876   39.0150 H         1 UNK         0.0600 
     38 H38        -8.7225   -4.5316   40.4331 H         1 UNK         0.0300 
     39 H39        -8.1215   -0.2066   39.2775 H         1 UNK         0.0600 
     40 H40        -9.4188   -0.3475   40.4623 H         1 UNK         0.0600 
     41 H41        -7.7690   -0.0256   40.9957 H         1 UNK         0.0600 
     42 H42        -8.3518   -2.4286   41.3820 H         1 UNK         0.0300 
     43 H43        -7.0561   -2.2867   40.1978 H         1 UNK         0.0300 
     44 H44        -8.8818   -9.2010   41.2257 H         1 UNK         0.4350 
@<TRIPOS>BOND
     1    1    2 ar   
     2    1    3 ar   
     3    1   25 1    
     4    2    4 ar   
     5    2   26 1    
     6    3    6 ar   
     7    3   27 1    
     8    4    8 ar   
     9    4   28 1    
    10    5    7 ar   
    11    5   19 ar   
    12    5   29 1    
    13    6    8 ar   
    14    6   19 1    
    15    7    9 ar   
    16    7   22 1    
    17    8   24 1    
    18    9   10 1    
    19    9   18 ar   
    20   10   20 am   BACKBONE|DICT|INTERRES
    21   10   21 2    
    22   11   12 1    
    23   11   13 1    
    24   11   30 1    
    25   11   31 1    
    26   12   15 1    
    27   12   32 1    
    28   12   33 1    
    29   13   20 1    
    30   13   34 1    
    31   13   35 1    
    32   14   15 1    
    33   14   20 1    
    34   14   36 1    
    35   14   37 1    
    36   15   23 1    
    37   15   38 1    
    38   16   17 1    
    39   16   39 1    
    40   16   40 1    
    41   16   41 1    
    42   17   23 1    
    43   17   42 1    
    44   17   43 1    
    45   18   19 ar   
    46   22   44 1    
@<TRIPOS>SUBSTRUCTURE
     1 UNK         1 GROUP             0       ****    0 ROOT    
@<TRIPOS>MOLECULE
ZINC90445981_14
45   47    1
SMALL
USER_CHARGES


@<TRIPOS>ATOM
      1 C1         -5.2201  -10.6727   37.7456 C.ar      1 UNK        -0.1150 
      2 C2         -5.3111  -10.7422   36.3417 C.ar      1 UNK        -0.1150 
      3 C3         -6.3863   -3.8466   39.4358 C.ar      1 UNK        -0.1150 
      4 C4         -7.0180   -5.7961   38.1313 C.ar      1 UNK        -0.1150 
      5 C5         -4.6289   -8.4072   36.1768 C.ar      1 UNK        -0.1150 
      6 C6         -6.2979   -5.2298   39.2022 C.ar      1 UNK        -0.1150 
      7 C7         -4.8369   -9.4691   38.3723 C.ar      1 UNK        -0.1150 
      8 C8         -4.5441   -8.3286   37.5820 C.ar      1 UNK        -0.1150 
      9 C9         -7.1413   -3.0178   38.5734 C.ar      1 UNK         0.0850 
     10 C10        -7.7738   -4.9920   37.2434 C.ar      1 UNK         0.0850 
     11 C11        -7.8163   -3.5821   37.4638 C.ar      1 UNK         0.0850 
     12 C12        -5.0164   -9.6107   35.5582 C.ar      1 UNK         0.1800 
     13 C13        -5.5139   -6.0966   40.1469 C.2       1 UNK         0.6150 
     14 C14        -4.7615   -9.4007   39.8957 C.3       1 UNK        -0.0050 
     15 C15        -4.1377   -7.0216   38.2478 C.3       1 UNK         0.0650 
     16 C16        -4.1051   -8.1048   40.4119 C.3       1 UNK        -0.0500 
     17 C17        -6.6766   -1.0626   39.9011 C.3       1 UNK         0.1100 
     18 C18        -8.3937   -6.9403   35.9483 C.3       1 UNK         0.1100 
     19 C19        -8.7771   -2.9765   35.3225 C.3       1 UNK         0.1100 
     20 N20        -4.6136   -6.9710   39.6349 N.am      1 UNK        -0.1400 
     21 O21        -5.7290   -5.9974   41.3542 O.2       1 UNK        -0.5000 
     22 O22        -7.2534   -1.6526   38.7460 O.3       1 UNK        -0.2850 
     23 O23        -8.4849   -5.5435   36.1950 O.3       1 UNK        -0.2850 
     24 O24        -8.5102   -2.6764   36.6829 O.3       1 UNK        -0.2850 
     25 Cl25       -5.1382   -9.6949   33.8404 Cl        1 UNK        -0.1800 
     26 H26        -5.4502  -11.5463   38.3386 H         1 UNK         0.1150 
     27 H27        -5.6082  -11.6638   35.8630 H         1 UNK         0.1150 
     28 H28        -5.8612   -3.4429   40.2884 H         1 UNK         0.1150 
     29 H29        -6.9770   -6.8681   38.0151 H         1 UNK         0.1150 
     30 H30        -4.4060   -7.5446   35.5657 H         1 UNK         0.1150 
     31 H31        -5.7794   -9.4704   40.2822 H         1 UNK         0.0600 
     32 H32        -4.2231  -10.2693   40.2770 H         1 UNK         0.0600 
     33 H33        -3.0482   -6.9688   38.2517 H         1 UNK         0.0600 
     34 H34        -4.4566   -6.1704   37.6463 H         1 UNK         0.0600 
     35 H35        -4.2672   -7.9982   41.4862 H         1 UNK         0.0600 
     36 H36        -3.0238   -8.1616   40.2801 H         1 UNK         0.0600 
     37 H37        -6.9042    0.0032   39.9102 H         1 UNK         0.0300 
     38 H38        -5.5910   -1.1671   39.9020 H         1 UNK         0.0300 
     39 H39        -7.0847   -1.4940   40.8163 H         1 UNK         0.0300 
     40 H40        -8.9838   -7.1874   35.0659 H         1 UNK         0.0300 
     41 H41        -8.7922   -7.5214   36.7811 H         1 UNK         0.0300 
     42 H42        -7.3658   -7.2463   35.7497 H         1 UNK         0.0300 
     43 H43        -9.0001   -2.0506   34.7928 H         1 UNK         0.0300 
     44 H44        -9.6506   -3.6212   35.2237 H         1 UNK         0.0300 
     45 H45        -7.9201   -3.4370   34.8288 H         1 UNK         0.0300 
@<TRIPOS>BOND
     1    1    2 ar   
     2    1    7 ar   
     3    1   26 1    
     4    2   12 ar   
     5    2   27 1    
     6    3    6 ar   
     7    3    9 ar   
     8    3   28 1    
     9    4    6 ar   
    10    4   10 ar   
    11    4   29 1    
    12    5    8 ar   
    13    5   12 ar   
    14    5   30 1    
    15    6   13 1    
    16    7    8 ar   
    17    7   14 1    
    18    8   15 1    
    19    9   11 ar   
    20    9   22 1    
    21   10   11 ar   
    22   10   23 1    
    23   11   24 1    
    24   12   25 1    
    25   13   20 am   BACKBONE|DICT|INTERRES
    26   13   21 2    
    27   14   16 1    
    28   14   31 1    
    29   14   32 1    
    30   15   20 1    
    31   15   33 1    
    32   15   34 1    
    33   16   20 1    
    34   16   35 1    
    35   16   36 1    
    36   17   22 1    
    37   17   37 1    
    38   17   38 1    
    39   17   39 1    
    40   18   23 1    
    41   18   40 1    
    42   18   41 1    
    43   18   42 1    
    44   19   24 1    
    45   19   43 1    
    46   19   44 1    
    47   19   45 1    
@<TRIPOS>SUBSTRUCTURE
     1 UNK         1 GROUP             0       ****    0 ROOT    
@<TRIPOS>MOLECULE
ZINC90500458_268
51   53    1
SMALL
USER_CHARGES


@<TRIPOS>ATOM
      1 C1        -12.2929  -22.1048   35.6641 C.ar      1 UNK        -0.1150 
      2 C2        -11.4027  -22.5847   36.6441 C.ar      1 UNK        -0.1150 
      3 C3        -12.5593  -20.7249   35.5715 C.ar      1 UNK        -0.1150 
      4 C4        -10.7800  -21.6861   37.5322 C.ar      1 UNK        -0.1150 
      5 C5        -11.9373  -19.8261   36.4595 C.ar      1 UNK        -0.1150 
      6 C6        -14.6079  -12.4624   40.5662 C.ar      1 UNK        -0.1150 
      7 C7        -15.1375  -13.7477   38.5640 C.ar      1 UNK        -0.1150 
      8 C8        -15.5575  -11.3503   38.6259 C.ar      1 UNK        -0.1150 
      9 C9        -14.6266  -13.6945   39.8808 C.ar      1 UNK        -0.1150 
     10 C10       -11.0459  -20.3028   37.4441 C.ar      1 UNK        -0.1150 
     11 C11       -15.0652  -11.2820   39.9522 C.ar      1 UNK         0.0850 
     12 C12       -15.6014  -12.5721   37.9258 C.ar      1 UNK         0.0850 
     13 C13       -11.8766  -17.5138   39.1848 C.2       1 UNK         0.5000 
     14 C14       -14.1434  -14.9335   40.5741 C.2       1 UNK         0.6150 
     15 C15       -13.3253  -19.5765   40.5790 C.3       1 UNK        -0.1200 
     16 C16       -13.8750  -18.1408   40.7144 C.3       1 UNK        -0.1200 
     17 C17       -11.7897  -19.6051   40.4572 C.3       1 UNK        -0.0500 
     18 C18       -12.8804  -17.0465   40.2501 C.3       1 UNK         0.1400 
     19 C19       -15.4632   -8.9204   40.1074 C.3       1 UNK         0.1100 
     20 C20       -16.1535  -13.7444   35.9024 C.3       1 UNK         0.1100 
     21 C21       -10.3873  -19.3314   38.4108 C.3       1 UNK         0.0650 
     22 N22       -11.3445  -18.7440   39.3531 N.am      1 UNK        -0.1400 
     23 N23       -13.5675  -15.8471   39.7894 N.am      1 UNK        -0.5000 
     24 O24       -11.6131  -16.7771   38.2308 O.2       1 UNK        -0.5000 
     25 O25       -14.2216  -15.0584   41.7942 O.2       1 UNK        -0.5000 
     26 O26       -14.9998  -10.1255   40.6985 O.3       1 UNK        -0.2850 
     27 O27       -16.1063  -12.5343   36.6440 O.3       1 UNK        -0.2850 
     28 H28       -12.7691  -22.7943   34.9820 H         1 UNK         0.1150 
     29 H29       -11.1972  -23.6432   36.7139 H         1 UNK         0.1150 
     30 H30       -13.2393  -20.3550   34.8178 H         1 UNK         0.1150 
     31 H31       -10.1002  -22.0657   38.2815 H         1 UNK         0.1150 
     32 H32       -12.1431  -18.7675   36.3804 H         1 UNK         0.1150 
     33 H33       -14.2356  -12.4196   41.5806 H         1 UNK         0.1150 
     34 H34       -15.1764  -14.7000   38.0586 H         1 UNK         0.1150 
     35 H35       -15.9177  -10.4709   38.1157 H         1 UNK         0.1150 
     36 H36       -13.6567  -20.1896   41.4183 H         1 UNK         0.0600 
     37 H37       -13.7500  -20.0377   39.6851 H         1 UNK         0.0600 
     38 H38       -14.8086  -18.0720   40.1541 H         1 UNK         0.0600 
     39 H39       -14.1415  -17.9476   41.7546 H         1 UNK         0.0600 
     40 H40       -11.3273  -19.2646   41.3851 H         1 UNK         0.0600 
     41 H41       -11.4575  -20.6333   40.3055 H         1 UNK         0.0600 
     42 H42       -12.2644  -16.7680   41.1080 H         1 UNK         0.0600 
     43 H43       -14.8850   -8.6643   39.2186 H         1 UNK         0.0300 
     44 H44       -15.3499   -8.1041   40.8207 H         1 UNK         0.0300 
     45 H45       -16.5203   -8.9850   39.8460 H         1 UNK         0.0300 
     46 H46       -16.5657  -13.5436   34.9136 H         1 UNK         0.0300 
     47 H47       -16.7973  -14.4818   36.3837 H         1 UNK         0.0300 
     48 H48       -15.1574  -14.1672   35.7646 H         1 UNK         0.0300 
     49 H49        -9.6007  -19.8386   38.9706 H         1 UNK         0.0600 
     50 H50        -9.8751  -18.5599   37.8322 H         1 UNK         0.0600 
     51 H51       -13.4115  -15.6156   38.8181 H         1 UNK         0.3000 
@<TRIPOS>BOND
     1    1    2 ar   
     2    1    3 ar   
     3    1   28 1    
     4    2    4 ar   
     5    2   29 1    
     6    3    5 ar   
     7    3   30 1    
     8    4   10 ar   
     9    4   31 1    
    10    5   10 ar   
    11    5   32 1    
    12    6    9 ar   
    13    6   11 ar   
    14    6   33 1    
    15    7    9 ar   
    16    7   12 ar   
    17    7   34 1    
    18    8   11 ar   
    19    8   12 ar   
    20    8   35 1    
    21    9   14 1    
    22   10   21 1    
    23   11   26 1    
    24   12   27 1    
    25   13   18 1    
    26   13   22 am   BACKBONE|DICT|INTERRES
    27   13   24 2    
    28   14   23 am   BACKBONE|DICT|INTERRES
    29   14   25 2    
    30   15   16 1    
    31   15   17 1    
    32   15   36 1    
    33   15   37 1    
    34   16   18 1    
    35   16   38 1    
    36   16   39 1    
    37   17   22 1    
    38   17   40 1    
    39   17   41 1    
    40   18   23 1    
    41   18   42 1    
    42   19   26 1    
    43   19   43 1    
    44   19   44 1    
    45   19   45 1    
    46   20   27 1    
    47   20   46 1    
    48   20   47 1    
    49   20   48 1    
    50   21   22 1    
    51   21   49 1    
    52   21   50 1    
    53   23   51 1    
@<TRIPOS>SUBSTRUCTURE
     1 UNK         1 GROUP             0       ****    0 ROOT    
@<TRIPOS>MOLECULE
ZINC91054093_125
51   53    1
SMALL
USER_CHARGES


@<TRIPOS>ATOM
      1 C1         -2.4235   -8.9277   36.4821 C.ar      1 UNK        -0.1150 
      2 C2         -3.0869   -8.7225   37.7115 C.ar      1 UNK        -0.1150 
      3 C3         -4.5270   -9.5923   35.4175 C.ar      1 UNK        -0.1150 
      4 C4         -8.7819   -6.0824   39.9351 C.ar      1 UNK        -0.1150 
      5 C5         -6.6892   -5.6535   38.7741 C.ar      1 UNK        -0.1150 
      6 C6         -5.1693   -9.3854   36.6499 C.ar      1 UNK        -0.1150 
      7 C7         -3.1369   -9.3567   35.3373 C.ar      1 UNK        -0.1150 
      8 C8         -7.3769   -6.0552   39.9342 C.ar      1 UNK        -0.1150 
      9 C9         -4.4782   -8.9561   37.7783 C.ar      1 UNK        -0.0383 
     10 C10        -9.5066   -5.7119   38.7773 C.ar      1 UNK         0.0850 
     11 C11        -7.3866   -5.3139   37.5892 C.ar      1 UNK         0.0850 
     12 C12        -8.8122   -5.3164   37.6086 C.ar      1 UNK         0.0850 
     13 C13        -5.0913   -8.2731   40.0833 C.2       1 UNK         0.5000 
     14 C14        -6.6289   -9.5635   36.9399 C.3       1 UNK        -0.0050 
     15 C15        -6.7260   -9.2296   38.4441 C.3       1 UNK        -0.0500 
     16 C16        -2.4104   -9.5700   34.0256 C.3       1 UNK        -0.0650 
     17 C17       -11.6199   -6.1065   39.8643 C.3       1 UNK         0.1100 
     18 C18        -5.3294   -5.2818   36.3260 C.3       1 UNK         0.1100 
     19 C19        -9.1487   -4.0219   35.6008 C.3       1 UNK         0.1100 
     20 C20        -6.6024   -6.5192   41.1573 C.3       1 UNK        -0.0050 
     21 C21        -6.2269   -8.0145   41.0863 C.3       1 UNK        -0.1200 
     22 N22        -5.3780   -8.8082   38.8675 N.am      1 UNK        -0.0317 
     23 O23        -3.9571   -7.9569   40.4408 O.2       1 UNK        -0.5000 
     24 O24       -10.8859   -5.7171   38.7138 O.3       1 UNK        -0.2850 
     25 O25        -6.7235   -5.0164   36.4148 O.3       1 UNK        -0.2850 
     26 O26        -9.6088   -4.9943   36.5269 O.3       1 UNK        -0.2850 
     27 H27        -1.3590   -8.7525   36.4239 H         1 UNK         0.1150 
     28 H28        -2.5187   -8.3942   38.5687 H         1 UNK         0.1150 
     29 H29        -5.0874   -9.9211   34.5541 H         1 UNK         0.1150 
     30 H30        -9.2867   -6.4006   40.8337 H         1 UNK         0.1150 
     31 H31        -5.6104   -5.6523   38.8045 H         1 UNK         0.1150 
     32 H32        -7.2169   -8.8712   36.3354 H         1 UNK         0.0600 
     33 H33        -6.9476  -10.5835   36.7230 H         1 UNK         0.0600 
     34 H34        -7.4713   -8.4515   38.6034 H         1 UNK         0.0600 
     35 H35        -7.0275  -10.1118   39.0097 H         1 UNK         0.0600 
     36 H36        -1.4957   -8.9783   33.9823 H         1 UNK         0.0600 
     37 H37        -2.1457  -10.6211   33.9094 H         1 UNK         0.0600 
     38 H38        -3.0395   -9.2783   33.1842 H         1 UNK         0.0600 
     39 H39       -12.6861   -6.0506   39.6449 H         1 UNK         0.0300 
     40 H40       -11.4221   -5.4429   40.7071 H         1 UNK         0.0300 
     41 H41       -11.3961   -7.1349   40.1505 H         1 UNK         0.0300 
     42 H42        -4.9965   -5.1114   35.3024 H         1 UNK         0.0300 
     43 H43        -5.0998   -6.3189   36.5745 H         1 UNK         0.0300 
     44 H44        -4.7541   -4.6175   36.9718 H         1 UNK         0.0300 
     45 H45       -10.0070   -3.5744   35.1001 H         1 UNK         0.0300 
     46 H46        -8.5265   -4.4765   34.8297 H         1 UNK         0.0300 
     47 H47        -8.5972   -3.2161   36.0877 H         1 UNK         0.0300 
     48 H48        -7.1998   -6.3343   42.0507 H         1 UNK         0.0600 
     49 H49        -5.7056   -5.9067   41.2705 H         1 UNK         0.0600 
     50 H50        -5.8485   -8.3208   42.0619 H         1 UNK         0.0600 
     51 H51        -7.1045   -8.6344   40.9129 H         1 UNK         0.0600 
@<TRIPOS>BOND
     1    1    2 ar   
     2    1    7 ar   
     3    1   27 1    
     4    2    9 ar   
     5    2   28 1    
     6    3    6 ar   
     7    3    7 ar   
     8    3   29 1    
     9    4    8 ar   
    10    4   10 ar   
    11    4   30 1    
    12    5    8 ar   
    13    5   11 ar   
    14    5   31 1    
    15    6    9 ar   
    16    6   14 1    
    17    7   16 1    
    18    8   20 1    
    19    9   22 1    
    20   10   12 ar   
    21   10   24 1    
    22   11   12 ar   
    23   11   25 1    
    24   12   26 1    
    25   13   21 1    
    26   13   22 am   BACKBONE|DICT|INTERRES
    27   13   23 2    
    28   14   15 1    
    29   14   32 1    
    30   14   33 1    
    31   15   22 1    
    32   15   34 1    
    33   15   35 1    
    34   16   36 1    
    35   16   37 1    
    36   16   38 1    
    37   17   24 1    
    38   17   39 1    
    39   17   40 1    
    40   17   41 1    
    41   18   25 1    
    42   18   42 1    
    43   18   43 1    
    44   18   44 1    
    45   19   26 1    
    46   19   45 1    
    47   19   46 1    
    48   19   47 1    
    49   20   21 1    
    50   20   48 1    
    51   20   49 1    
    52   21   50 1    
    53   21   51 1    
@<TRIPOS>SUBSTRUCTURE
     1 UNK         1 GROUP             0       ****    0 ROOT    
@<TRIPOS>MOLECULE
ZINC91054413_38
44   46    1
SMALL
USER_CHARGES


@<TRIPOS>ATOM
      1 C1         -8.0182   -5.9609   38.5346 C.ar      1 UNK        -0.1150 
      2 C2         -4.7989   -8.2949   36.8781 C.ar      1 UNK        -0.1150 
      3 C3         -5.3178   -7.5129   37.9325 C.ar      1 UNK        -0.1150 
      4 C4         -8.4512   -5.1148   37.4979 C.ar      1 UNK        -0.1150 
      5 C5         -6.6727   -4.1502   39.4467 C.ar      1 UNK        -0.1150 
      6 C6         -4.9062  -10.3075   38.2709 C.ar      1 UNK        -0.1150 
      7 C7         -7.1046   -5.4911   39.5014 C.ar      1 UNK        -0.1150 
      8 C8         -5.4251   -9.5134   39.3077 C.ar      1 UNK        -0.1150 
      9 C9         -4.6010   -9.6872   37.0392 C.ar      1 UNK        -0.1150 
     10 C10        -5.6565   -8.1505   39.1468 C.ar      1 UNK        -0.0383 
     11 C11        -7.9937   -3.7758   37.4218 C.ar      1 UNK         0.0850 
     12 C12        -7.1040   -3.2883   38.4074 C.ar      1 UNK         0.0850 
     13 C13        -6.6520   -6.3759   40.6290 C.2       1 UNK         0.6150 
     14 C14        -5.7688   -9.9636   40.6983 C.3       1 UNK        -0.0050 
     15 C15        -6.1129   -8.6380   41.4129 C.3       1 UNK        -0.0500 
     16 C16        -4.0409  -10.5078   35.8961 C.3       1 UNK        -0.0650 
     17 C17        -9.5265   -2.1878   34.4580 C.3       1 UNK        -0.1800 
     18 C18        -5.8484   -1.4367   39.2921 C.3       1 UNK         0.1100 
     19 C19        -9.2721   -3.3434   35.4268 C.3       1 UNK         0.1400 
     20 N20        -6.1666   -7.6135   40.3600 N.am      1 UNK        -0.0317 
     21 O21        -6.7260   -5.9436   41.7803 O.2       1 UNK        -0.5000 
     22 O22        -6.7017   -1.9735   38.2928 O.3       1 UNK        -0.2850 
     23 O23        -8.3735   -2.8950   36.4296 O.3       1 UNK        -0.2850 
     24 H24        -8.3805   -6.9785   38.5780 H         1 UNK         0.1150 
     25 H25        -4.5442   -7.8166   35.9432 H         1 UNK         0.1150 
     26 H26        -5.4311   -6.4496   37.7864 H         1 UNK         0.1150 
     27 H27        -9.1385   -5.5195   36.7717 H         1 UNK         0.1150 
     28 H28        -6.0016   -3.8060   40.2193 H         1 UNK         0.1150 
     29 H29        -4.7377  -11.3645   38.4195 H         1 UNK         0.1150 
     30 H30        -6.6253  -10.6377   40.6660 H         1 UNK         0.0600 
     31 H31        -4.9304  -10.4788   41.1682 H         1 UNK         0.0600 
     32 H32        -7.0555   -8.7094   41.9582 H         1 UNK         0.0600 
     33 H33        -5.3315   -8.3694   42.1254 H         1 UNK         0.0600 
     34 H34        -2.9517  -10.5192   35.9392 H         1 UNK         0.0600 
     35 H35        -4.3981  -11.5370   35.9431 H         1 UNK         0.0600 
     36 H36        -4.3427  -10.0916   34.9346 H         1 UNK         0.0600 
     37 H37        -9.9599   -1.3336   34.9785 H         1 UNK         0.0600 
     38 H38        -8.5978   -1.8591   33.9915 H         1 UNK         0.0600 
     39 H39       -10.2146   -2.4839   33.6664 H         1 UNK         0.0600 
     40 H40        -5.6430   -0.3909   39.0639 H         1 UNK         0.0300 
     41 H41        -4.8922   -1.9604   39.3242 H         1 UNK         0.0300 
     42 H42        -6.3161   -1.4728   40.2769 H         1 UNK         0.0300 
     43 H43        -8.8467   -4.1889   34.8841 H         1 UNK         0.0300 
     44 H44       -10.2154   -3.6603   35.8745 H         1 UNK         0.0300 
@<TRIPOS>BOND
     1    1    4 ar   
     2    1    7 ar   
     3    1   24 1    
     4    2    3 ar   
     5    2    9 ar   
     6    2   25 1    
     7    3   10 ar   
     8    3   26 1    
     9    4   11 ar   
    10    4   27 1    
    11    5    7 ar   
    12    5   12 ar   
    13    5   28 1    
    14    6    8 ar   
    15    6    9 ar   
    16    6   29 1    
    17    7   13 1    
    18    8   10 ar   
    19    8   14 1    
    20    9   16 1    
    21   10   20 1    
    22   11   12 ar   
    23   11   23 1    
    24   12   22 1    
    25   13   20 am   BACKBONE|DICT|INTERRES
    26   13   21 2    
    27   14   15 1    
    28   14   30 1    
    29   14   31 1    
    30   15   20 1    
    31   15   32 1    
    32   15   33 1    
    33   16   34 1    
    34   16   35 1    
    35   16   36 1    
    36   17   19 1    
    37   17   37 1    
    38   17   38 1    
    39   17   39 1    
    40   18   22 1    
    41   18   40 1    
    42   18   41 1    
    43   18   42 1    
    44   19   23 1    
    45   19   43 1    
    46   19   44 1    
@<TRIPOS>SUBSTRUCTURE
     1 UNK         1 GROUP             0       ****    0 ROOT    
@<TRIPOS>MOLECULE
ZINC91054644_12
44   46    1
SMALL
USER_CHARGES


@<TRIPOS>ATOM
      1 C1        -12.6494  -19.5264   37.3493 C.ar      1 UNK        -0.1150 
      2 C2        -13.3504  -18.3016   37.3066 C.ar      1 UNK        -0.1150 
      3 C3        -17.5323  -15.0195   37.5570 C.ar      1 UNK        -0.1150 
      4 C4        -15.9043  -13.4977   38.5395 C.ar      1 UNK        -0.1150 
      5 C5        -14.0910  -20.3300   39.1612 C.ar      1 UNK        -0.1150 
      6 C6        -16.2144  -14.7533   37.9822 C.ar      1 UNK        -0.1150 
      7 C7        -14.7767  -19.1046   39.1042 C.ar      1 UNK        -0.1150 
      8 C8        -13.0148  -20.5382   38.2697 C.ar      1 UNK        -0.1150 
      9 C9        -18.2340  -12.8122   38.3209 C.ar      1 UNK        -0.1150 
     10 C10       -14.4212  -18.1044   38.2055 C.ar      1 UNK        -0.0383 
     11 C11       -18.5548  -14.0578   37.7330 C.ar      1 UNK         0.0850 
     12 C12       -16.9084  -12.5171   38.7231 C.ar      1 UNK         0.0850 
     13 C13       -15.1203  -15.7648   37.7886 C.2       1 UNK         0.6150 
     14 C14       -15.9398  -18.6842   39.9523 C.3       1 UNK        -0.0050 
     15 C15       -16.3120  -17.3028   39.3684 C.3       1 UNK        -0.0500 
     16 C16       -12.2451  -21.8423   38.2977 C.3       1 UNK        -0.0650 
     17 C17       -19.3412  -11.7861   38.5067 C.3       1 UNK        -0.0650 
     18 C18       -20.2074  -15.4873   36.7224 C.3       1 UNK         0.1100 
     19 C19       -15.3247  -10.9402   39.6182 C.3       1 UNK         0.1100 
     20 N20       -15.2833  -16.9878   38.3586 N.am      1 UNK        -0.0317 
     21 O21       -14.1183  -15.4207   37.1619 O.2       1 UNK        -0.5000 
     22 O22       -19.8672  -14.2650   37.3600 O.3       1 UNK        -0.2850 
     23 O23       -16.6620  -11.2791   39.2809 O.3       1 UNK        -0.2850 
     24 H24       -11.8258  -19.6863   36.6684 H         1 UNK         0.1150 
     25 H25       -13.0577  -17.5461   36.5922 H         1 UNK         0.1150 
     26 H26       -17.7358  -15.9713   37.0909 H         1 UNK         0.1150 
     27 H27       -14.8789  -13.3145   38.8241 H         1 UNK         0.1150 
     28 H28       -14.3828  -21.0905   39.8708 H         1 UNK         0.1150 
     29 H29       -16.7591  -19.3996   39.8737 H         1 UNK         0.0600 
     30 H30       -15.6321  -18.6119   40.9960 H         1 UNK         0.0600 
     31 H31       -17.2938  -17.3607   38.8997 H         1 UNK         0.0600 
     32 H32       -16.3517  -16.5434   40.1510 H         1 UNK         0.0600 
     33 H33       -11.2987  -21.7086   38.8221 H         1 UNK         0.0600 
     34 H34       -12.8109  -22.6246   38.8041 H         1 UNK         0.0600 
     35 H35       -12.0317  -22.1837   37.2845 H         1 UNK         0.0600 
     36 H36       -20.0307  -12.1218   39.2809 H         1 UNK         0.0600 
     37 H37       -18.9656  -10.8038   38.7895 H         1 UNK         0.0600 
     38 H38       -19.9022  -11.6659   37.5799 H         1 UNK         0.0600 
     39 H39       -21.2702  -15.4823   36.4809 H         1 UNK         0.0300 
     40 H40       -20.0217  -16.3427   37.3730 H         1 UNK         0.0300 
     41 H41       -19.6589  -15.6148   35.7883 H         1 UNK         0.0300 
     42 H42       -14.9319  -11.5965   40.3958 H         1 UNK         0.0300 
     43 H43       -15.2989   -9.9212   40.0040 H         1 UNK         0.0300 
     44 H44       -14.6705  -10.9782   38.7460 H         1 UNK         0.0300 
@<TRIPOS>BOND
     1    1    2 ar   
     2    1    8 ar   
     3    1   24 1    
     4    2   10 ar   
     5    2   25 1    
     6    3    6 ar   
     7    3   11 ar   
     8    3   26 1    
     9    4    6 ar   
    10    4   12 ar   
    11    4   27 1    
    12    5    7 ar   
    13    5    8 ar   
    14    5   28 1    
    15    6   13 1    
    16    7   10 ar   
    17    7   14 1    
    18    8   16 1    
    19    9   11 ar   
    20    9   12 ar   
    21    9   17 1    
    22   10   20 1    
    23   11   22 1    
    24   12   23 1    
    25   13   20 am   BACKBONE|DICT|INTERRES
    26   13   21 2    
    27   14   15 1    
    28   14   29 1    
    29   14   30 1    
    30   15   20 1    
    31   15   31 1    
    32   15   32 1    
    33   16   33 1    
    34   16   34 1    
    35   16   35 1    
    36   17   36 1    
    37   17   37 1    
    38   17   38 1    
    39   18   22 1    
    40   18   39 1    
    41   18   40 1    
    42   18   41 1    
    43   19   23 1    
    44   19   42 1    
    45   19   43 1    
    46   19   44 1    
@<TRIPOS>SUBSTRUCTURE
     1 UNK         1 GROUP             0       ****    0 ROOT    
@<TRIPOS>MOLECULE
ZINC91054977_67
41   43    1
SMALL
USER_CHARGES


@<TRIPOS>ATOM
      1 C1        -10.3165   -8.3931   39.1201 C.ar      1 UNK        -0.1150 
      2 C2         -8.2778  -12.5766   36.7265 C.ar      1 UNK        -0.1150 
      3 C3         -8.7964  -11.7571   37.7525 C.ar      1 UNK        -0.1150 
      4 C4        -10.8784   -7.6588   38.0578 C.ar      1 UNK        -0.1150 
      5 C5        -11.5656  -10.3601   38.4220 C.ar      1 UNK        -0.1150 
      6 C6         -8.1097  -14.4680   38.2739 C.ar      1 UNK        -0.1150 
      7 C7        -10.6348   -9.7555   39.2938 C.ar      1 UNK        -0.1150 
      8 C8         -8.6309  -13.6386   39.2811 C.ar      1 UNK        -0.1150 
      9 C9         -7.9425  -13.9281   36.9797 C.ar      1 UNK        -0.1150 
     10 C10        -8.9964  -12.3185   39.0337 C.ar      1 UNK        -0.0383 
     11 C11       -11.7896   -8.2713   37.1614 C.ar      1 UNK         0.0850 
     12 C12       -12.1406   -9.6279   37.3665 C.ar      1 UNK         0.1996 
     13 C13       -10.0518  -10.5212   40.4476 C.2       1 UNK         0.6150 
     14 C14        -8.8440  -14.0029   40.7216 C.3       1 UNK        -0.0050 
     15 C15        -9.2652  -12.6596   41.3564 C.3       1 UNK        -0.0500 
     16 C16        -7.3851  -14.7923   35.8678 C.3       1 UNK        -0.0650 
     17 C17       -11.9808   -6.2773   35.8304 C.3       1 UNK         0.1100 
     18 C18       -14.3030   -9.8474   36.5154 C.3       1 UNK         0.6167 
     19 N19        -9.4769  -11.7312   40.2359 N.am      1 UNK        -0.0317 
     20 O20       -10.1048  -10.0136   41.5687 O.2       1 UNK        -0.5000 
     21 O21       -12.3650   -7.6191   36.0908 O.3       1 UNK        -0.2850 
     22 O22       -13.0128  -10.2744   36.5298 O.3       1 UNK        -0.3811 
     23 F23       -14.7671   -9.8176   35.2428 F         1 UNK        -0.2326 
     24 F24       -15.0796  -10.7073   37.2185 F         1 UNK        -0.2326 
     25 H25        -9.6316   -7.9105   39.8042 H         1 UNK         0.1150 
     26 H26        -8.1316  -12.1584   35.7409 H         1 UNK         0.1150 
     27 H27        -9.0158  -10.7242   37.5316 H         1 UNK         0.1150 
     28 H28       -10.5933   -6.6230   37.9555 H         1 UNK         0.1150 
     29 H29       -11.8395  -11.3974   38.5534 H         1 UNK         0.1150 
     30 H30        -7.8378  -15.4912   38.4897 H         1 UNK         0.1150 
     31 H31        -9.6345  -14.7500   40.7992 H         1 UNK         0.0600 
     32 H32        -7.9335  -14.4024   41.1696 H         1 UNK         0.0600 
     33 H33       -10.1614  -12.7695   41.9693 H         1 UNK         0.0600 
     34 H34        -8.4696  -12.2678   41.9919 H         1 UNK         0.0600 
     35 H35        -6.2953  -14.7801   35.8923 H         1 UNK         0.0600 
     36 H36        -7.7204  -15.8244   35.9747 H         1 UNK         0.0600 
     37 H37        -7.7116  -14.4332   34.8914 H         1 UNK         0.0600 
     38 H38       -12.4972   -5.9231   34.9381 H         1 UNK         0.0300 
     39 H39       -10.9091   -6.1970   35.6435 H         1 UNK         0.0300 
     40 H40       -12.2561   -5.6168   36.6537 H         1 UNK         0.0300 
     41 H41       -14.4201   -8.8529   36.9463 H         1 UNK         0.0300 
@<TRIPOS>BOND
     1    1    4 ar   
     2    1    7 ar   
     3    1   25 1    
     4    2    3 ar   
     5    2    9 ar   
     6    2   26 1    
     7    3   10 ar   
     8    3   27 1    
     9    4   11 ar   
    10    4   28 1    
    11    5    7 ar   
    12    5   12 ar   
    13    5   29 1    
    14    6    8 ar   
    15    6    9 ar   
    16    6   30 1    
    17    7   13 1    
    18    8   10 ar   
    19    8   14 1    
    20    9   16 1    
    21   10   19 1    
    22   11   12 ar   
    23   11   21 1    
    24   12   22 1    
    25   13   19 am   BACKBONE|DICT|INTERRES
    26   13   20 2    
    27   14   15 1    
    28   14   31 1    
    29   14   32 1    
    30   15   19 1    
    31   15   33 1    
    32   15   34 1    
    33   16   35 1    
    34   16   36 1    
    35   16   37 1    
    36   17   21 1    
    37   17   38 1    
    38   17   39 1    
    39   17   40 1    
    40   18   22 1    
    41   18   23 1    
    42   18   24 1    
    43   18   41 1    
@<TRIPOS>SUBSTRUCTURE
     1 UNK         1 GROUP             0       ****    0 ROOT    
@<TRIPOS>MOLECULE
ZINC91055203_41
44   46    1
SMALL
USER_CHARGES


@<TRIPOS>ATOM
      1 C1         -9.5359   -7.3017   38.5948 C.ar      1 UNK        -0.1150 
      2 C2         -6.0763   -9.2165   36.8519 C.ar      1 UNK        -0.1150 
      3 C3         -6.6698   -8.4843   37.9029 C.ar      1 UNK        -0.1150 
      4 C4        -10.1266   -6.5493   37.5660 C.ar      1 UNK        -0.1150 
      5 C5         -8.4260   -5.2935   39.3960 C.ar      1 UNK        -0.1150 
      6 C6         -5.8032  -11.1626   38.3143 C.ar      1 UNK        -0.1150 
      7 C7         -8.6567   -6.6798   39.5029 C.ar      1 UNK        -0.1150 
      8 C8         -6.4000  -10.4197   39.3470 C.ar      1 UNK        -0.1150 
      9 C9         -5.6498  -10.5515   37.0503 C.ar      1 UNK        -0.1150 
     10 C10        -6.8509   -9.1172   39.1531 C.ar      1 UNK        -0.0383 
     11 C11        -9.8728   -5.1705   37.4239 C.ar      1 UNK         0.0850 
     12 C12        -9.0172   -4.5180   38.3638 C.ar      1 UNK         0.0850 
     13 C13        -8.0348   -7.4557   40.6300 C.2       1 UNK         0.6150 
     14 C14        -6.6124  -10.8645   40.7649 C.3       1 UNK        -0.0050 
     15 C15        -7.1298   -9.5821   41.4527 C.3       1 UNK        -0.0500 
     16 C16        -5.0083  -11.3191   35.9133 C.3       1 UNK        -0.0650 
     17 C17        -7.9064   -1.0236   38.8525 C.3       1 UNK        -0.1800 
     18 C18       -10.1808   -3.2749   35.9323 C.3       1 UNK         0.1100 
     19 C19        -7.9645   -2.5094   39.2104 C.3       1 UNK         0.1400 
     20 N20        -7.3869   -8.6191   40.3721 N.am      1 UNK        -0.0317 
     21 O21        -8.1196   -6.9995   41.7715 O.2       1 UNK        -0.5000 
     22 O22       -10.5239   -4.5854   36.3544 O.3       1 UNK        -0.2850 
     23 O23        -8.7953   -3.1591   38.2593 O.3       1 UNK        -0.2850 
     24 H24        -9.7507   -8.3579   38.6764 H         1 UNK         0.1150 
     25 H25        -5.9418   -8.7426   35.8902 H         1 UNK         0.1150 
     26 H26        -6.9583   -7.4595   37.7261 H         1 UNK         0.1150 
     27 H27       -10.7875   -7.0372   36.8648 H         1 UNK         0.1150 
     28 H28        -7.7805   -4.8466   40.1365 H         1 UNK         0.1150 
     29 H29        -5.4625  -12.1729   38.4894 H         1 UNK         0.1150 
     30 H30        -7.3543  -11.6632   40.7927 H         1 UNK         0.0600 
     31 H31        -5.6855  -11.2261   41.2113 H         1 UNK         0.0600 
     32 H32        -8.0253   -9.7776   42.0446 H         1 UNK         0.0600 
     33 H33        -6.3700   -9.1687   42.1177 H         1 UNK         0.0600 
     34 H34        -3.9240  -11.2127   35.9531 H         1 UNK         0.0600 
     35 H35        -5.2529  -12.3799   35.9747 H         1 UNK         0.0600 
     36 H36        -5.3545  -10.9503   34.9476 H         1 UNK         0.0600 
     37 H37        -7.4965   -0.8800   37.8526 H         1 UNK         0.0600 
     38 H38        -8.9014   -0.5788   38.8745 H         1 UNK         0.0600 
     39 H39        -7.2781   -0.4767   39.5554 H         1 UNK         0.0600 
     40 H40       -10.6720   -3.0684   34.9816 H         1 UNK         0.0300 
     41 H41        -9.1069   -3.1690   35.7721 H         1 UNK         0.0300 
     42 H42       -10.5267   -2.5235   36.6429 H         1 UNK         0.0300 
     43 H43        -8.3690   -2.6274   40.2168 H         1 UNK         0.0300 
     44 H44        -6.9578   -2.9296   39.1903 H         1 UNK         0.0300 
@<TRIPOS>BOND
     1    1    4 ar   
     2    1    7 ar   
     3    1   24 1    
     4    2    3 ar   
     5    2    9 ar   
     6    2   25 1    
     7    3   10 ar   
     8    3   26 1    
     9    4   11 ar   
    10    4   27 1    
    11    5    7 ar   
    12    5   12 ar   
    13    5   28 1    
    14    6    8 ar   
    15    6    9 ar   
    16    6   29 1    
    17    7   13 1    
    18    8   10 ar   
    19    8   14 1    
    20    9   16 1    
    21   10   20 1    
    22   11   12 ar   
    23   11   22 1    
    24   12   23 1    
    25   13   20 am   BACKBONE|DICT|INTERRES
    26   13   21 2    
    27   14   15 1    
    28   14   30 1    
    29   14   31 1    
    30   15   20 1    
    31   15   32 1    
    32   15   33 1    
    33   16   34 1    
    34   16   35 1    
    35   16   36 1    
    36   17   19 1    
    37   17   37 1    
    38   17   38 1    
    39   17   39 1    
    40   18   22 1    
    41   18   40 1    
    42   18   41 1    
    43   18   42 1    
    44   19   23 1    
    45   19   43 1    
    46   19   44 1    
@<TRIPOS>SUBSTRUCTURE
     1 UNK         1 GROUP             0       ****    0 ROOT    
@<TRIPOS>MOLECULE
ZINC91055268_57
45   47    1
SMALL
USER_CHARGES


@<TRIPOS>ATOM
      1 C1         -5.5975   -8.9215   36.7762 C.ar      1 UNK        -0.1150 
      2 C2         -6.0499   -8.1677   37.8806 C.ar      1 UNK        -0.1150 
      3 C3         -8.7568   -6.7847   38.6719 C.ar      1 UNK        -0.1150 
      4 C4         -7.5140   -4.8828   39.5553 C.ar      1 UNK        -0.1150 
      5 C5         -5.5443  -10.9553   38.1416 C.ar      1 UNK        -0.1150 
      6 C6         -7.8309   -6.2559   39.5974 C.ar      1 UNK        -0.1150 
      7 C7         -5.9995  -10.1894   39.2281 C.ar      1 UNK        -0.1150 
      8 C8         -5.3538  -10.3103   36.8996 C.ar      1 UNK        -0.1150 
      9 C9         -6.2788   -8.8317   39.1064 C.ar      1 UNK        -0.0383 
     10 C10        -9.3188   -5.9657   37.6642 C.ar      1 UNK         0.0850 
     11 C11        -8.0771   -4.0416   38.5660 C.ar      1 UNK         0.0850 
     12 C12        -8.9683   -4.5956   37.6208 C.ar      1 UNK         0.1996 
     13 C13        -7.2469   -7.1211   40.6791 C.2       1 UNK         0.6150 
     14 C14        -6.2178  -10.6657   40.6354 C.3       1 UNK        -0.0050 
     15 C15        -6.5301   -9.3570   41.3951 C.3       1 UNK        -0.0500 
     16 C16        -4.8641  -11.1022   35.7050 C.3       1 UNK        -0.0650 
     17 C17       -10.5207   -7.8106   36.6942 C.3       1 UNK         0.1100 
     18 C18        -6.9535   -2.0972   39.4262 C.3       1 UNK         0.1100 
     19 C19        -9.0556   -3.9317   35.3970 C.3       1 UNK         0.6167 
     20 N20        -6.7100   -8.3260   40.3627 N.am      1 UNK        -0.0317 
     21 O21        -7.2664   -6.7022   41.8368 O.2       1 UNK        -0.5000 
     22 O22       -10.1952   -6.4282   36.7043 O.3       1 UNK        -0.2850 
     23 O23        -7.8004   -2.6949   38.4567 O.3       1 UNK        -0.2850 
     24 O24        -9.5109   -3.7753   36.6654 O.3       1 UNK        -0.3811 
     25 F25       -10.0751   -3.7856   34.5167 F         1 UNK        -0.2326 
     26 F26        -8.1259   -2.9875   35.1125 F         1 UNK        -0.2326 
     27 H27        -5.4268   -8.4244   35.8321 H         1 UNK         0.1150 
     28 H28        -6.1965   -7.1051   37.7634 H         1 UNK         0.1150 
     29 H29        -9.0097   -7.8318   38.7447 H         1 UNK         0.1150 
     30 H30        -6.8317   -4.4973   40.2984 H         1 UNK         0.1150 
     31 H31        -5.3365  -12.0092   38.2595 H         1 UNK         0.1150 
     32 H32        -7.0603  -11.3578   40.6620 H         1 UNK         0.0600 
     33 H33        -5.3334  -11.1692   41.0273 H         1 UNK         0.0600 
     34 H34        -7.4117   -9.4617   42.0297 H         1 UNK         0.0600 
     35 H35        -5.6910   -9.0705   42.0311 H         1 UNK         0.0600 
     36 H36        -3.7750  -11.1528   35.7077 H         1 UNK         0.0600 
     37 H37        -5.2558  -12.1196   35.7272 H         1 UNK         0.0600 
     38 H38        -5.1842  -10.6395   34.7708 H         1 UNK         0.0600 
     39 H39       -11.1901   -8.0160   35.8588 H         1 UNK         0.0300 
     40 H40       -11.0365   -8.1044   37.6093 H         1 UNK         0.0300 
     41 H41        -9.6323   -8.4305   36.5631 H         1 UNK         0.0300 
     42 H42        -6.8628   -1.0319   39.2147 H         1 UNK         0.0300 
     43 H43        -5.9506   -2.5250   39.3977 H         1 UNK         0.0300 
     44 H44        -7.3636   -2.1992   40.4318 H         1 UNK         0.0300 
     45 H45        -8.6086   -4.9134   35.2368 H         1 UNK         0.0300 
@<TRIPOS>BOND
     1    1    2 ar   
     2    1    8 ar   
     3    1   27 1    
     4    2    9 ar   
     5    2   28 1    
     6    3    6 ar   
     7    3   10 ar   
     8    3   29 1    
     9    4    6 ar   
    10    4   11 ar   
    11    4   30 1    
    12    5    7 ar   
    13    5    8 ar   
    14    5   31 1    
    15    6   13 1    
    16    7    9 ar   
    17    7   14 1    
    18    8   16 1    
    19    9   20 1    
    20   10   12 ar   
    21   10   22 1    
    22   11   12 ar   
    23   11   23 1    
    24   12   24 1    
    25   13   20 am   BACKBONE|DICT|INTERRES
    26   13   21 2    
    27   14   15 1    
    28   14   32 1    
    29   14   33 1    
    30   15   20 1    
    31   15   34 1    
    32   15   35 1    
    33   16   36 1    
    34   16   37 1    
    35   16   38 1    
    36   17   22 1    
    37   17   39 1    
    38   17   40 1    
    39   17   41 1    
    40   18   23 1    
    41   18   42 1    
    42   18   43 1    
    43   18   44 1    
    44   19   24 1    
    45   19   25 1    
    46   19   26 1    
    47   19   45 1    
@<TRIPOS>SUBSTRUCTURE
     1 UNK         1 GROUP             0       ****    0 ROOT    
@<TRIPOS>MOLECULE
ZINC91055425_97
41   43    1
SMALL
USER_CHARGES


@<TRIPOS>ATOM
      1 C1         -6.4876   -3.9770   39.3846 C.ar      1 UNK        -0.1150 
      2 C2         -4.8259   -8.2572   36.7897 C.ar      1 UNK        -0.1150 
      3 C3         -5.2215   -7.4220   37.8571 C.ar      1 UNK        -0.1150 
      4 C4         -7.0494   -3.1832   38.3681 C.ar      1 UNK        -0.1150 
      5 C5         -7.8363   -5.8656   38.6428 C.ar      1 UNK        -0.1150 
      6 C6         -4.7781  -10.1997   38.2815 C.ar      1 UNK        -0.1150 
      7 C7         -6.8580   -5.3313   39.5124 C.ar      1 UNK        -0.1150 
      8 C8         -5.1771   -9.3538   39.3300 C.ar      1 UNK        -0.1150 
      9 C9         -4.6131   -9.6415   36.9948 C.ar      1 UNK        -0.1150 
     10 C10        -5.4257   -7.9993   39.1303 C.ar      1 UNK        -0.0383 
     11 C11        -7.9873   -3.7298   37.4715 C.ar      1 UNK         0.1996 
     12 C12        -8.3998   -5.0784   37.6077 C.ar      1 UNK         0.0850 
     13 C13        -6.2803   -6.1614   40.6262 C.2       1 UNK         0.6150 
     14 C14        -5.3579   -9.7346   40.7710 C.3       1 UNK        -0.0050 
     15 C15        -5.6217   -8.3747   41.4543 C.3       1 UNK        -0.0500 
     16 C16        -4.1830  -10.5222   35.8402 C.3       1 UNK        -0.0650 
     17 C17        -9.7103   -6.9220   36.7856 C.3       1 UNK         0.1100 
     18 C18        -8.3058   -3.2562   35.2021 C.3       1 UNK         0.6167 
     19 N19        -5.8003   -7.4032   40.3653 N.am      1 UNK        -0.0317 
     20 O20        -6.2529   -5.6806   41.7597 O.2       1 UNK        -0.5000 
     21 O21        -9.3408   -5.5524   36.7173 O.3       1 UNK        -0.2850 
     22 O22        -8.5075   -2.9112   36.5015 O.3       1 UNK        -0.3811 
     23 F23        -9.4769   -3.2173   34.5217 F         1 UNK        -0.2326 
     24 F24        -7.4572   -2.3749   34.6194 F         1 UNK        -0.2326 
     25 H25        -5.7736   -3.5446   40.0722 H         1 UNK         0.1150 
     26 H26        -4.6739   -7.8264   35.8105 H         1 UNK         0.1150 
     27 H27        -5.3440   -6.3653   37.6760 H         1 UNK         0.1150 
     28 H28        -6.7614   -2.1465   38.2721 H         1 UNK         0.1150 
     29 H29        -8.1334   -6.8938   38.7841 H         1 UNK         0.1150 
     30 H30        -4.5924  -11.2490   38.4612 H         1 UNK         0.1150 
     31 H31        -6.2097  -10.4084   40.8708 H         1 UNK         0.0600 
     32 H32        -4.4684  -10.2276   41.1651 H         1 UNK         0.0600 
     33 H33        -6.4933   -8.4177   42.1096 H         1 UNK         0.0600 
     34 H34        -4.7630   -8.0724   42.0558 H         1 UNK         0.0600 
     35 H35        -3.0978  -10.6262   35.8302 H         1 UNK         0.0600 
     36 H36        -4.6229  -11.5160   35.9272 H         1 UNK         0.0600 
     37 H37        -4.4960  -10.0993   34.8851 H         1 UNK         0.0600 
     38 H38       -10.4297   -7.1385   35.9960 H         1 UNK         0.0300 
     39 H39       -10.1855   -7.1612   37.7377 H         1 UNK         0.0300 
     40 H40        -8.8494   -7.5754   36.6351 H         1 UNK         0.0300 
     41 H41        -7.8777   -4.2529   35.0948 H         1 UNK         0.0300 
@<TRIPOS>BOND
     1    1    4 ar   
     2    1    7 ar   
     3    1   25 1    
     4    2    3 ar   
     5    2    9 ar   
     6    2   26 1    
     7    3   10 ar   
     8    3   27 1    
     9    4   11 ar   
    10    4   28 1    
    11    5    7 ar   
    12    5   12 ar   
    13    5   29 1    
    14    6    8 ar   
    15    6    9 ar   
    16    6   30 1    
    17    7   13 1    
    18    8   10 ar   
    19    8   14 1    
    20    9   16 1    
    21   10   19 1    
    22   11   12 ar   
    23   11   22 1    
    24   12   21 1    
    25   13   19 am   BACKBONE|DICT|INTERRES
    26   13   20 2    
    27   14   15 1    
    28   14   31 1    
    29   14   32 1    
    30   15   19 1    
    31   15   33 1    
    32   15   34 1    
    33   16   35 1    
    34   16   36 1    
    35   16   37 1    
    36   17   21 1    
    37   17   38 1    
    38   17   39 1    
    39   17   40 1    
    40   18   22 1    
    41   18   23 1    
    42   18   24 1    
    43   18   41 1    
@<TRIPOS>SUBSTRUCTURE
     1 UNK         1 GROUP             0       ****    0 ROOT    
@<TRIPOS>MOLECULE
ZINC91104108_22
41   43    1
SMALL
USER_CHARGES


@<TRIPOS>ATOM
      1 C1         -4.5408   -8.1996   36.9155 C.ar      1 UNK        -0.1150 
      2 C2         -5.0357   -7.3887   37.9595 C.ar      1 UNK        -0.1150 
      3 C3         -7.7336   -5.7609   38.5484 C.ar      1 UNK        -0.1150 
      4 C4         -4.6613  -10.1812   38.3491 C.ar      1 UNK        -0.1150 
      5 C5         -6.5887   -3.2297   38.2612 C.ar      1 UNK        -0.1150 
      6 C6         -6.7688   -5.3248   39.4811 C.ar      1 UNK        -0.1150 
      7 C7         -5.1563   -9.3590   39.3754 C.ar      1 UNK        -0.1150 
      8 C8         -4.3607   -9.5906   37.1022 C.ar      1 UNK        -0.1150 
      9 C9         -5.3698   -7.9957   39.1914 C.ar      1 UNK        -0.0383 
     10 C10        -8.1213   -4.9549   37.4467 C.ar      1 UNK         0.0850 
     11 C11        -7.5410   -3.6562   37.3137 C.ar      1 UNK         0.0850 
     12 C12        -6.2006   -4.0455   39.3366 C.ar      1 UNK         0.2200 
     13 C13        -6.3948   -6.2035   40.6387 C.2       1 UNK         0.6150 
     14 C14        -5.4928   -9.7806   40.7761 C.3       1 UNK        -0.0050 
     15 C15        -5.8259   -8.4407   41.4675 C.3       1 UNK        -0.0500 
     16 C16        -3.8217  -10.4411   35.9709 C.3       1 UNK        -0.0650 
     17 C17        -9.4961   -6.7443   36.5773 C.3       1 UNK         0.1100 
     18 C18        -8.8390   -2.9491   35.3784 C.3       1 UNK         0.1100 
     19 N19        -5.8667   -7.4307   40.3989 N.am      1 UNK        -0.0317 
     20 O20        -6.6280   -5.8093   41.7824 O.2       1 UNK        -0.5000 
     21 O21        -9.0319   -5.4028   36.5111 O.3       1 UNK        -0.2850 
     22 O22        -7.8012   -2.7304   36.3203 O.3       1 UNK        -0.2850 
     23 F23        -5.2640   -3.5949   40.2056 F         1 UNK        -0.2200 
     24 H24        -4.2883   -7.7443   35.9685 H         1 UNK         0.1150 
     25 H25        -5.1299   -6.3277   37.7894 H         1 UNK         0.1150 
     26 H26        -8.1564   -6.7418   38.7003 H         1 UNK         0.1150 
     27 H27        -4.5067  -11.2373   38.5171 H         1 UNK         0.1150 
     28 H28        -6.1429   -2.2517   38.1594 H         1 UNK         0.1150 
     29 H29        -6.3519  -10.4521   40.7635 H         1 UNK         0.0600 
     30 H30        -4.6523  -10.2893   41.2494 H         1 UNK         0.0600 
     31 H31        -6.7694   -8.4984   42.0130 H         1 UNK         0.0600 
     32 H32        -5.0441   -8.1670   42.1775 H         1 UNK         0.0600 
     33 H33        -2.7317  -10.4234   35.9743 H         1 UNK         0.0600 
     34 H34        -4.1493  -11.4764   36.0690 H         1 UNK         0.0600 
     35 H35        -4.1685  -10.0690   35.0064 H         1 UNK         0.0600 
     36 H36       -10.1451   -6.9405   35.7240 H         1 UNK         0.0300 
     37 H37       -10.0812   -6.9202   37.4808 H         1 UNK         0.0300 
     38 H38        -8.6711   -7.4571   36.5316 H         1 UNK         0.0300 
     39 H39        -8.9512   -2.0576   34.7615 H         1 UNK         0.0300 
     40 H40        -9.7984   -3.1279   35.8659 H         1 UNK         0.0300 
     41 H41        -8.6002   -3.7766   34.7094 H         1 UNK         0.0300 
@<TRIPOS>BOND
     1    1    2 ar   
     2    1    8 ar   
     3    1   24 1    
     4    2    9 ar   
     5    2   25 1    
     6    3    6 ar   
     7    3   10 ar   
     8    3   26 1    
     9    4    7 ar   
    10    4    8 ar   
    11    4   27 1    
    12    5   11 ar   
    13    5   12 ar   
    14    5   28 1    
    15    6   12 ar   
    16    6   13 1    
    17    7    9 ar   
    18    7   14 1    
    19    8   16 1    
    20    9   19 1    
    21   10   11 ar   
    22   10   21 1    
    23   11   22 1    
    24   12   23 1    
    25   13   19 am   BACKBONE|DICT|INTERRES
    26   13   20 2    
    27   14   15 1    
    28   14   29 1    
    29   14   30 1    
    30   15   19 1    
    31   15   31 1    
    32   15   32 1    
    33   16   33 1    
    34   16   34 1    
    35   16   35 1    
    36   17   21 1    
    37   17   36 1    
    38   17   37 1    
    39   17   38 1    
    40   18   22 1    
    41   18   39 1    
    42   18   40 1    
    43   18   41 1    
@<TRIPOS>SUBSTRUCTURE
     1 UNK         1 GROUP             0       ****    0 ROOT    
@<TRIPOS>MOLECULE
ZINC91144699_25
48   50    1
SMALL
USER_CHARGES


@<TRIPOS>ATOM
      1 C1        -14.2082  -20.9862   35.1473 C.ar      1 UNK        -0.1150 
      2 C2        -13.9095  -19.6997   35.6350 C.ar      1 UNK        -0.1150 
      3 C3        -14.4067  -22.0497   36.0482 C.ar      1 UNK        -0.1150 
      4 C4        -13.8151  -19.4766   37.0230 C.ar      1 UNK        -0.1150 
      5 C5        -14.3121  -21.8241   37.4356 C.ar      1 UNK        -0.1150 
      6 C6        -15.8504  -14.5397   39.6405 C.ar      1 UNK        -0.1150 
      7 C7        -17.0959  -16.3083   38.5351 C.ar      1 UNK        -0.1150 
      8 C8        -14.0508  -19.4599   41.4479 C.ar      1 UNK         0.0360 
      9 C9        -14.0213  -20.5357   37.9356 C.ar      1 UNK        -0.0454 
     10 C10       -16.1086  -15.9122   39.4606 C.ar      1 UNK        -0.1150 
     11 C11       -14.3788  -19.1869   40.1497 C.ar      1 UNK        -0.0850 
     12 C12       -16.5306  -13.5623   38.8897 C.ar      1 UNK         0.0850 
     13 C13       -17.7995  -15.3552   37.7768 C.ar      1 UNK         0.0850 
     14 C14       -17.4889  -13.9736   37.9195 C.ar      1 UNK         0.0850 
     15 C15       -13.9408  -20.3035   39.3828 C.ar      1 UNK         0.3834 
     16 C16       -15.3696  -16.9244   40.2823 C.2       1 UNK         0.6150 
     17 C17       -12.9323  -21.4757   42.5311 C.3       1 UNK        -0.0575 
     18 C18       -17.1255  -11.2298   38.9481 C.3       1 UNK         0.1100 
     19 C19       -19.9655  -15.1325   36.7936 C.3       1 UNK         0.1100 
     20 C20       -17.4310  -12.9654   35.8259 C.3       1 UNK         0.1100 
     21 N21       -13.3979  -21.2190   40.1760 N.2       1 UNK        -0.5310 
     22 N22       -13.4569  -20.7038   41.4258 N.pl3     1 UNK         0.0695 
     23 N23       -15.0536  -18.0520   39.6311 N.am      1 UNK        -0.3850 
     24 O24       -15.0324  -16.6761   41.4385 O.2       1 UNK        -0.5000 
     25 O25       -16.1651  -12.2572   39.1456 O.3       1 UNK        -0.2850 
     26 O26       -18.7444  -15.8525   36.9070 O.3       1 UNK        -0.2850 
     27 O27       -18.0733  -13.0528   37.0886 O.3       1 UNK        -0.2850 
     28 H28       -14.2772  -21.1594   34.0828 H         1 UNK         0.1150 
     29 H29       -13.7448  -18.8860   34.9434 H         1 UNK         0.1150 
     30 H30       -14.6284  -23.0400   35.6774 H         1 UNK         0.1150 
     31 H31       -13.5615  -18.4905   37.3831 H         1 UNK         0.1150 
     32 H32       -14.4620  -22.6433   38.1248 H         1 UNK         0.1150 
     33 H33       -15.1132  -14.2266   40.3671 H         1 UNK         0.1150 
     34 H34       -17.3445  -17.3521   38.4092 H         1 UNK         0.1150 
     35 H35       -14.1933  -18.9008   42.3621 H         1 UNK         0.1350 
     36 H36       -13.5741  -22.3383   42.7117 H         1 UNK         0.0600 
     37 H37       -11.9258  -21.8227   42.2950 H         1 UNK         0.0600 
     38 H38       -12.8940  -20.8643   43.4330 H         1 UNK         0.0600 
     39 H39       -18.1300  -11.5430   39.2370 H         1 UNK         0.0300 
     40 H40       -17.1336  -10.8909   37.9122 H         1 UNK         0.0300 
     41 H41       -16.8607  -10.3721   39.5662 H         1 UNK         0.0300 
     42 H42       -19.9146  -14.3864   36.0011 H         1 UNK         0.0300 
     43 H43       -20.2474  -14.6429   37.7272 H         1 UNK         0.0300 
     44 H44       -20.7652  -15.8255   36.5334 H         1 UNK         0.0300 
     45 H45       -17.9302  -12.2144   35.2140 H         1 UNK         0.0300 
     46 H46       -17.4690  -13.9144   35.2892 H         1 UNK         0.0300 
     47 H47       -16.3866  -12.6697   35.9360 H         1 UNK         0.0300 
     48 H48       -15.3252  -18.0977   38.6610 H         1 UNK         0.3000 
@<TRIPOS>BOND
     1    1    2 ar   
     2    1    3 ar   
     3    1   28 1    
     4    2    4 ar   
     5    2   29 1    
     6    3    5 ar   
     7    3   30 1    
     8    4    9 ar   
     9    4   31 1    
    10    5    9 ar   
    11    5   32 1    
    12    6   10 ar   
    13    6   12 ar   
    14    6   33 1    
    15    7   10 ar   
    16    7   13 ar   
    17    7   34 1    
    18    8   11 ar   
    19    8   22 ar   
    20    8   35 1    
    21    9   15 1    
    22   10   16 1    
    23   11   15 ar   
    24   11   23 1    
    25   12   14 ar   
    26   12   25 1    
    27   13   14 ar   
    28   13   26 1    
    29   14   27 1    
    30   15   21 ar   
    31   16   23 am   BACKBONE|DICT|INTERRES
    32   16   24 2    
    33   17   22 1    
    34   17   36 1    
    35   17   37 1    
    36   17   38 1    
    37   18   25 1    
    38   18   39 1    
    39   18   40 1    
    40   18   41 1    
    41   19   26 1    
    42   19   42 1    
    43   19   43 1    
    44   19   44 1    
    45   20   27 1    
    46   20   45 1    
    47   20   46 1    
    48   20   47 1    
    49   21   22 ar   
    50   23   48 1    
@<TRIPOS>SUBSTRUCTURE
     1 UNK         1 GROUP             0       ****    0 ROOT    
@<TRIPOS>MOLECULE
ZINC91257073_12
42   44    1
SMALL
USER_CHARGES


@<TRIPOS>ATOM
      1 C1         -5.5079   -8.9019   36.7758 C.ar      1 UNK        -0.1150 
      2 C2         -5.9583   -8.1231   37.8635 C.ar      1 UNK        -0.1150 
      3 C3         -8.6391   -6.7159   38.6461 C.ar      1 UNK        -0.1150 
      4 C4         -7.4214   -4.7854   39.5090 C.ar      1 UNK        -0.1150 
      5 C5         -5.3883  -10.8890   38.2031 C.ar      1 UNK        -0.1150 
      6 C6         -7.7177   -6.1636   39.5643 C.ar      1 UNK        -0.1150 
      7 C7         -5.8432  -10.0990   39.2724 C.ar      1 UNK        -0.1150 
      8 C8         -5.2315  -10.2805   36.9385 C.ar      1 UNK        -0.1150 
      9 C9         -6.1536   -8.7517   39.1136 C.ar      1 UNK        -0.0383 
     10 C10        -9.2143   -5.9175   37.6288 C.ar      1 UNK         0.0850 
     11 C11        -8.0026   -3.9655   38.5132 C.ar      1 UNK         0.0850 
     12 C12        -8.8851   -4.5455   37.5811 C.ar      1 UNK         0.1500 
     13 C13        -7.1199   -7.0075   40.6552 C.2       1 UNK         0.6150 
     14 C14        -6.0313  -10.5374   40.6959 C.3       1 UNK        -0.0050 
     15 C15        -6.3762   -9.2168   41.4190 C.3       1 UNK        -0.0500 
     16 C16        -4.7441  -11.1010   35.7624 C.3       1 UNK        -0.0650 
     17 C17       -10.3142   -7.8018   36.6217 C.3       1 UNK         0.1100 
     18 C18        -6.9163   -1.9876   39.3319 C.3       1 UNK         0.1100 
     19 N19        -6.5793   -8.2168   40.3603 N.am      1 UNK        -0.0317 
     20 O20        -7.1273   -6.5644   41.8047 O.2       1 UNK        -0.5000 
     21 O21        -9.4170   -3.7339   36.6245 O.3       1 UNK        -0.5850 
     22 O22       -10.0840   -6.4023   36.6740 O.3       1 UNK        -0.2850 
     23 O23        -7.7649   -2.6123   38.3796 O.3       1 UNK        -0.2850 
     24 H24        -5.3671   -8.4307   35.8134 H         1 UNK         0.1150 
     25 H25        -6.1332   -7.0688   37.7129 H         1 UNK         0.1150 
     26 H26        -8.8774   -7.7654   38.7288 H         1 UNK         0.1150 
     27 H27        -6.7444   -4.3804   40.2465 H         1 UNK         0.1150 
     28 H28        -5.1571  -11.9342   38.3504 H         1 UNK         0.1150 
     29 H29        -6.8496  -11.2559   40.7562 H         1 UNK         0.0600 
     30 H30        -5.1257  -10.9986   41.0913 H         1 UNK         0.0600 
     31 H31        -7.2593   -9.3258   42.0506 H         1 UNK         0.0600 
     32 H32        -5.5476   -8.8954   42.0518 H         1 UNK         0.0600 
     33 H33        -3.6567  -11.1763   35.7813 H         1 UNK         0.0600 
     34 H34        -5.1600  -12.1084   35.7962 H         1 UNK         0.0600 
     35 H35        -5.0404  -10.6473   34.8161 H         1 UNK         0.0600 
     36 H36       -10.9667   -8.0276   35.7785 H         1 UNK         0.0300 
     37 H37       -10.8097   -8.1578   37.5257 H         1 UNK         0.0300 
     38 H38        -9.3843   -8.3538   36.4758 H         1 UNK         0.0300 
     39 H39        -6.8492   -0.9225   39.1104 H         1 UNK         0.0300 
     40 H40        -5.9057   -2.3965   39.2942 H         1 UNK         0.0300 
     41 H41        -7.3098   -2.0891   40.3444 H         1 UNK         0.0300 
     42 H42        -9.0919   -2.8570   36.7678 H         1 UNK         0.4350 
@<TRIPOS>BOND
     1    1    2 ar   
     2    1    8 ar   
     3    1   24 1    
     4    2    9 ar   
     5    2   25 1    
     6    3    6 ar   
     7    3   10 ar   
     8    3   26 1    
     9    4    6 ar   
    10    4   11 ar   
    11    4   27 1    
    12    5    7 ar   
    13    5    8 ar   
    14    5   28 1    
    15    6   13 1    
    16    7    9 ar   
    17    7   14 1    
    18    8   16 1    
    19    9   19 1    
    20   10   12 ar   
    21   10   22 1    
    22   11   12 ar   
    23   11   23 1    
    24   12   21 1    
    25   13   19 am   BACKBONE|DICT|INTERRES
    26   13   20 2    
    27   14   15 1    
    28   14   29 1    
    29   14   30 1    
    30   15   19 1    
    31   15   31 1    
    32   15   32 1    
    33   16   33 1    
    34   16   34 1    
    35   16   35 1    
    36   17   22 1    
    37   17   36 1    
    38   17   37 1    
    39   17   38 1    
    40   18   23 1    
    41   18   39 1    
    42   18   40 1    
    43   18   41 1    
    44   21   42 1    
@<TRIPOS>SUBSTRUCTURE
     1 UNK         1 GROUP             0       ****    0 ROOT    
@<TRIPOS>MOLECULE
ZINC91759943_45
35   36    1
SMALL
USER_CHARGES


@<TRIPOS>ATOM
      1 C1         -5.6326   -8.5937   41.2799 C.2       1 UNK        -0.1540 
      2 C2         -5.1745   -9.6536   40.4484 C.2       1 UNK        -0.1540 
      3 C3         -7.8711   -5.8782   38.6600 C.ar      1 UNK        -0.1150 
      4 C4         -6.8736   -3.2813   38.4164 C.ar      1 UNK        -0.1150 
      5 C5         -6.9599   -5.3913   39.6219 C.ar      1 UNK        -0.1150 
      6 C6         -8.2920   -5.0825   37.5624 C.ar      1 UNK         0.0850 
      7 C7         -7.7741   -3.7566   37.4424 C.ar      1 UNK         0.0850 
      8 C8         -6.4634   -4.0806   39.4958 C.ar      1 UNK         0.2200 
      9 C9         -6.0117   -7.5745   40.4484 C.2       1 UNK         0.0080 
     10 C10        -5.3009   -9.2104   39.1625 C.2       1 UNK         0.0080 
     11 C11        -6.5468   -6.2462   40.7642 C.2       1 UNK         0.7000 
     12 C12        -3.8576   -9.0867   37.1017 C.3       1 UNK        -0.1800 
     13 C13        -9.6998   -6.8779   36.7554 C.3       1 UNK         0.1100 
     14 C14        -8.8339   -3.2130   35.3172 C.3       1 UNK         0.1100 
     15 C15        -4.9964   -9.8079   37.8304 C.3       1 UNK        -0.0050 
     16 O16        -6.6450   -5.8777   41.9350 O.2       1 UNK        -0.4700 
     17 O17        -5.8091   -7.9475   39.1492 O.3       1 UNK        -0.1900 
     18 O18        -9.1884   -5.5586   36.6266 O.3       1 UNK        -0.2850 
     19 O19        -8.0640   -2.8394   36.4490 O.3       1 UNK        -0.2850 
     20 F20        -5.5773   -3.5786   40.3894 F         1 UNK        -0.2200 
     21 H21        -5.6795   -8.5671   42.3594 H         1 UNK         0.1260 
     22 H22        -4.7940  -10.6175   40.7545 H         1 UNK         0.1260 
     23 H23        -8.2385   -6.8838   38.7926 H         1 UNK         0.1150 
     24 H24        -6.4815   -2.2790   38.3292 H         1 UNK         0.1150 
     25 H25        -4.1058   -8.0398   36.9247 H         1 UNK         0.0600 
     26 H26        -3.6558   -9.5496   36.1357 H         1 UNK         0.0600 
     27 H27        -2.9378   -9.1164   37.6865 H         1 UNK         0.0600 
     28 H28       -10.3809   -7.0787   35.9285 H         1 UNK         0.0300 
     29 H29       -10.2643   -6.9994   37.6810 H         1 UNK         0.0300 
     30 H30        -8.9040   -7.6228   36.7123 H         1 UNK         0.0300 
     31 H31        -8.8580   -2.3801   34.6147 H         1 UNK         0.0300 
     32 H32        -9.8664   -3.4339   35.5899 H         1 UNK         0.0300 
     33 H33        -8.3952   -4.0641   34.7946 H         1 UNK         0.0300 
     34 H34        -4.7385  -10.8601   37.9554 H         1 UNK         0.0600 
     35 H35        -5.8948   -9.7866   37.2129 H         1 UNK         0.0600 
@<TRIPOS>BOND
     1    1    2 1    
     2    1    9 2    
     3    1   21 1    
     4    2   10 2    
     5    2   22 1    
     6    3    5 ar   
     7    3    6 ar   
     8    3   23 1    
     9    4    7 ar   
    10    4    8 ar   
    11    4   24 1    
    12    5    8 ar   
    13    5   11 1    
    14    6    7 ar   
    15    6   18 1    
    16    7   19 1    
    17    8   20 1    
    18    9   11 1    
    19    9   17 1    
    20   10   15 1    
    21   10   17 1    
    22   11   16 2    
    23   12   15 1    
    24   12   25 1    
    25   12   26 1    
    26   12   27 1    
    27   13   18 1    
    28   13   28 1    
    29   13   29 1    
    30   13   30 1    
    31   14   19 1    
    32   14   31 1    
    33   14   32 1    
    34   14   33 1    
    35   15   34 1    
    36   15   35 1    
@<TRIPOS>SUBSTRUCTURE
     1 UNK         1 GROUP             0       ****    0 ROOT    
@<TRIPOS>MOLECULE
ZINC91809990_24
44   46    1
SMALL
USER_CHARGES


@<TRIPOS>ATOM
      1 C1         -5.3756  -13.7449   37.1970 C.ar      1 UNK        -0.1150 
      2 C2         -4.4765  -12.1316   35.6091 C.ar      1 UNK        -0.1150 
      3 C3         -5.9509  -12.6949   37.9394 C.ar      1 UNK        -0.1150 
      4 C4         -5.0503  -11.0819   36.3525 C.ar      1 UNK        -0.1150 
      5 C5         -7.3652  -10.3577   39.2372 C.ar      1 UNK         0.0360 
      6 C6         -4.6371  -13.4668   36.0300 C.ar      1 UNK        -0.1150 
      7 C7         -5.7964  -11.3520   37.5235 C.ar      1 UNK         0.0731 
      8 C8         -7.6154   -9.0870   39.6748 C.ar      1 UNK        -0.0200 
      9 C9         -6.7247   -8.2775   38.9007 C.ar      1 UNK         0.2230 
     10 C10        -6.6406   -6.7817   39.0700 C.2       1 UNK         0.6150 
     11 C11       -10.1232   -6.2255   38.7240 C.3       1 UNK        -0.1200 
     12 C12       -10.2181   -4.7337   39.0897 C.3       1 UNK        -0.1200 
     13 C13        -8.8578   -6.5138   37.8940 C.3       1 UNK        -0.0500 
     14 C14        -7.7142   -4.5692   38.8182 C.3       1 UNK        -0.0500 
     15 C15        -8.9132   -4.2179   39.7228 C.3       1 UNK         0.1700 
     16 C16        -4.0210  -14.5995   35.2352 C.3       1 UNK        -0.0650 
     17 C17        -8.1704   -2.2362   40.8239 C.3       1 UNK         0.1100 
     18 N18        -5.9977   -9.0099   38.0668 N.2       1 UNK        -0.5310 
     19 N19        -6.3810  -10.2915   38.2680 N.pl3     1 UNK         0.1189 
     20 N20        -7.6745   -6.0250   38.6204 N.am      1 UNK        -0.1400 
     21 O21        -5.6353   -6.2947   39.5936 O.2       1 UNK        -0.5000 
     22 O22        -8.5083   -8.6930   40.6361 O.3       1 UNK        -0.5850 
     23 O23        -9.0503   -2.8120   39.8696 O.3       1 UNK        -0.4000 
     24 H24        -5.5004  -14.7653   37.5294 H         1 UNK         0.1150 
     25 H25        -3.9118  -11.9020   34.7170 H         1 UNK         0.1150 
     26 H26        -6.4995  -12.9395   38.8349 H         1 UNK         0.1150 
     27 H27        -4.9145  -10.0638   36.0168 H         1 UNK         0.1150 
     28 H28        -7.8076  -11.2966   39.5317 H         1 UNK         0.1350 
     29 H29       -10.1069   -6.8198   39.6378 H         1 UNK         0.0600 
     30 H30       -11.0128   -6.5331   38.1735 H         1 UNK         0.0600 
     31 H31       -10.4310   -4.1570   38.1885 H         1 UNK         0.0600 
     32 H32       -11.0554   -4.5635   39.7672 H         1 UNK         0.0600 
     33 H33        -8.8124   -7.5742   37.6471 H         1 UNK         0.0600 
     34 H34        -8.9169   -5.9983   36.9344 H         1 UNK         0.0600 
     35 H35        -7.8127   -4.0754   37.8510 H         1 UNK         0.0600 
     36 H36        -6.7890   -4.1875   39.2500 H         1 UNK         0.0600 
     37 H37        -8.7926   -4.6889   40.7008 H         1 UNK         0.0300 
     38 H38        -4.7828  -15.0969   34.6346 H         1 UNK         0.0600 
     39 H39        -3.2417  -14.2343   34.5657 H         1 UNK         0.0600 
     40 H40        -3.5722  -15.3365   35.9017 H         1 UNK         0.0600 
     41 H41        -8.3667   -1.1666   40.8972 H         1 UNK         0.0300 
     42 H42        -7.1245   -2.3604   40.5436 H         1 UNK         0.0300 
     43 H43        -8.3208   -2.6698   41.8132 H         1 UNK         0.0300 
     44 H44        -8.9145   -9.4008   41.1141 H         1 UNK         0.4350 
@<TRIPOS>BOND
     1    1    3 ar   
     2    1    6 ar   
     3    1   24 1    
     4    2    4 ar   
     5    2    6 ar   
     6    2   25 1    
     7    3    7 ar   
     8    3   26 1    
     9    4    7 ar   
    10    4   27 1    
    11    5    8 ar   
    12    5   19 ar   
    13    5   28 1    
    14    6   16 1    
    15    7   19 1    
    16    8    9 ar   
    17    8   22 1    
    18    9   10 1    
    19    9   18 ar   
    20   10   20 am   BACKBONE|DICT|INTERRES
    21   10   21 2    
    22   11   12 1    
    23   11   13 1    
    24   11   29 1    
    25   11   30 1    
    26   12   15 1    
    27   12   31 1    
    28   12   32 1    
    29   13   20 1    
    30   13   33 1    
    31   13   34 1    
    32   14   15 1    
    33   14   20 1    
    34   14   35 1    
    35   14   36 1    
    36   15   23 1    
    37   15   37 1    
    38   16   38 1    
    39   16   39 1    
    40   16   40 1    
    41   17   23 1    
    42   17   41 1    
    43   17   42 1    
    44   17   43 1    
    45   18   19 ar   
    46   22   44 1    
@<TRIPOS>SUBSTRUCTURE
     1 UNK         1 GROUP             0       ****    0 ROOT    
@<TRIPOS>MOLECULE
ZINC91809991_27
44   46    1
SMALL
USER_CHARGES


@<TRIPOS>ATOM
      1 C1         -4.7837  -13.0244   36.6502 C.ar      1 UNK        -0.1150 
      2 C2         -4.4010  -11.1147   35.1875 C.ar      1 UNK        -0.1150 
      3 C3         -5.3468  -12.1708   37.6189 C.ar      1 UNK        -0.1150 
      4 C4         -4.9643  -10.2616   36.1562 C.ar      1 UNK        -0.1150 
      5 C5         -6.7779  -10.2478   39.4617 C.ar      1 UNK         0.0360 
      6 C6         -4.3081  -12.4989   35.4324 C.ar      1 UNK        -0.1150 
      7 C7         -5.4453  -10.7801   37.3811 C.ar      1 UNK         0.0731 
      8 C8         -7.1120   -9.0902   40.1073 C.ar      1 UNK        -0.0200 
      9 C9         -6.5090   -8.0658   39.3091 C.ar      1 UNK         0.2230 
     10 C10        -6.5876   -6.6036   39.6735 C.2       1 UNK         0.6150 
     11 C11        -9.4348   -5.7757   37.9278 C.3       1 UNK        -0.1200 
     12 C12        -9.5176   -4.2656   38.2199 C.3       1 UNK        -0.1200 
     13 C13        -9.0609   -6.5676   39.1954 C.3       1 UNK        -0.0500 
     14 C14        -7.9722   -4.6268   40.1801 C.3       1 UNK        -0.0500 
     15 C15        -8.2602   -3.7496   38.9446 C.3       1 UNK         0.1700 
     16 C16        -3.7021  -13.4158   34.3904 C.3       1 UNK        -0.0650 
     17 C17        -7.3526   -1.6427   39.5969 C.3       1 UNK         0.1100 
     18 N18        -5.8594   -8.5762   38.2708 N.2       1 UNK        -0.5310 
     19 N19        -6.0173   -9.9171   38.3552 N.pl3     1 UNK         0.1189 
     20 N20        -7.8108   -6.0201   39.7454 N.am      1 UNK        -0.1400 
     21 O21        -5.5436   -5.9809   39.8851 O.2       1 UNK        -0.5000 
     22 O22        -7.8534   -8.9526   41.2515 O.3       1 UNK        -0.5850 
     23 O23        -8.5185   -2.4043   39.3182 O.3       1 UNK        -0.4000 
     24 H24        -4.7148  -14.0843   36.8485 H         1 UNK         0.1150 
     25 H25        -4.0399  -10.6981   34.2582 H         1 UNK         0.1150 
     26 H26        -5.6893  -12.6023   38.5459 H         1 UNK         0.1150 
     27 H27        -5.0257   -9.2022   35.9521 H         1 UNK         0.1150 
     28 H28        -7.0218  -11.2722   39.6961 H         1 UNK         0.1350 
     29 H29       -10.3848   -6.1314   37.5276 H         1 UNK         0.0600 
     30 H30        -8.6873   -5.9553   37.1533 H         1 UNK         0.0600 
     31 H31        -9.6708   -3.7089   37.2948 H         1 UNK         0.0600 
     32 H32       -10.3922   -4.0709   38.8420 H         1 UNK         0.0600 
     33 H33        -9.8490   -6.4818   39.9447 H         1 UNK         0.0600 
     34 H34        -9.0059   -7.6266   38.9492 H         1 UNK         0.0600 
     35 H35        -7.0954   -4.2681   40.7197 H         1 UNK         0.0600 
     36 H36        -8.7979   -4.5622   40.8895 H         1 UNK         0.0600 
     37 H37        -7.4170   -3.7920   38.2517 H         1 UNK         0.0300 
     38 H38        -4.4604  -13.7166   33.6672 H         1 UNK         0.0600 
     39 H39        -2.8955  -12.9138   33.8551 H         1 UNK         0.0600 
     40 H40        -3.2902  -14.3141   34.8512 H         1 UNK         0.0600 
     41 H41        -7.6388   -0.6163   39.8265 H         1 UNK         0.0300 
     42 H42        -6.6814   -1.6157   38.7375 H         1 UNK         0.0300 
     43 H43        -6.8057   -2.0321   40.4555 H         1 UNK         0.0300 
     44 H44        -8.0708   -9.7650   41.6840 H         1 UNK         0.4350 
@<TRIPOS>BOND
     1    1    3 ar   
     2    1    6 ar   
     3    1   24 1    
     4    2    4 ar   
     5    2    6 ar   
     6    2   25 1    
     7    3    7 ar   
     8    3   26 1    
     9    4    7 ar   
    10    4   27 1    
    11    5    8 ar   
    12    5   19 ar   
    13    5   28 1    
    14    6   16 1    
    15    7   19 1    
    16    8    9 ar   
    17    8   22 1    
    18    9   10 1    
    19    9   18 ar   
    20   10   20 am   BACKBONE|DICT|INTERRES
    21   10   21 2    
    22   11   12 1    
    23   11   13 1    
    24   11   29 1    
    25   11   30 1    
    26   12   15 1    
    27   12   31 1    
    28   12   32 1    
    29   13   20 1    
    30   13   33 1    
    31   13   34 1    
    32   14   15 1    
    33   14   20 1    
    34   14   35 1    
    35   14   36 1    
    36   15   23 1    
    37   15   37 1    
    38   16   38 1    
    39   16   39 1    
    40   16   40 1    
    41   17   23 1    
    42   17   41 1    
    43   17   42 1    
    44   17   43 1    
    45   18   19 ar   
    46   22   44 1    
@<TRIPOS>SUBSTRUCTURE
     1 UNK         1 GROUP             0       ****    0 ROOT    
@<TRIPOS>MOLECULE
ZINC91833369_164
45   47    1
SMALL
USER_CHARGES


@<TRIPOS>ATOM
      1 C1         -7.5791  -15.6047   35.8965 C.ar      1 UNK        -0.1150 
      2 C2         -7.9714  -16.2103   37.1053 C.ar      1 UNK        -0.1150 
      3 C3         -7.4436  -14.2056   35.8245 C.ar      1 UNK        -0.1150 
      4 C4        -11.2644   -6.3566   39.7026 C.ar      1 UNK        -0.1150 
      5 C5         -8.2236  -15.4191   38.2438 C.ar      1 UNK        -0.1150 
      6 C6         -7.6956  -13.4140   36.9620 C.ar      1 UNK        -0.1150 
      7 C7        -12.1775   -5.8285   38.7720 C.ar      1 UNK        -0.1150 
      8 C8        -10.4302   -7.8900   38.0078 C.ar      1 UNK        -0.1150 
      9 C9         -8.2923  -13.6060   40.5831 C.ar      1 UNK         0.2778 
     10 C10       -10.3900   -7.3933   39.3272 C.ar      1 UNK        -0.0418 
     11 C11        -8.0807  -14.0119   38.1835 C.ar      1 UNK         0.1225 
     12 C12       -12.2288   -6.3303   37.4473 C.ar      1 UNK         0.0850 
     13 C13       -11.3504   -7.3706   37.0635 C.ar      1 UNK         0.0850 
     14 C14        -8.6920  -11.5817   40.5933 C.ar      1 UNK         0.4656 
     15 C15        -8.9802  -10.1980   41.0924 C.2       1 UNK         0.6250 
     16 C16        -8.0821   -7.1415   40.3079 C.3       1 UNK        -0.1800 
     17 C17       -14.0173   -4.8373   36.8465 C.3       1 UNK         0.1100 
     18 C18       -10.6348   -8.9229   35.3707 C.3       1 UNK         0.1100 
     19 C19        -9.3924   -7.9410   40.3360 C.3       1 UNK         0.2618 
     20 N20        -8.5258  -12.6351   41.4576 N.2       1 UNK        -0.6329 
     21 N21        -8.5717  -11.8568   39.2889 N.2       1 UNK        -0.5282 
     22 N22        -8.3245  -13.1866   39.3133 N.pl3     1 UNK         0.0656 
     23 O23        -9.0889   -9.9002   42.2850 O.2       1 UNK        -0.4300 
     24 O24       -13.0996   -5.8583   36.4868 O.3       1 UNK        -0.2850 
     25 O25       -11.4442   -7.8243   35.7635 O.3       1 UNK        -0.2850 
     26 O26        -9.0989   -9.3071   40.0831 O.3       1 UNK        -0.3300 
     27 H27        -7.3868  -16.2125   35.0237 H         1 UNK         0.1150 
     28 H28        -8.0830  -17.2837   37.1577 H         1 UNK         0.1150 
     29 H29        -7.1472  -13.7373   34.8970 H         1 UNK         0.1150 
     30 H30       -11.2368   -5.9624   40.7081 H         1 UNK         0.1150 
     31 H31        -8.5389  -15.9106   39.1512 H         1 UNK         0.1150 
     32 H32        -7.5891  -12.3405   36.8972 H         1 UNK         0.1150 
     33 H33       -12.8310   -5.0357   39.1006 H         1 UNK         0.1150 
     34 H34        -9.7424   -8.6768   37.7390 H         1 UNK         0.1150 
     35 H35        -8.0832  -14.6209   40.8877 H         1 UNK         0.1146 
     36 H36        -7.5998   -7.2090   39.3323 H         1 UNK         0.0600 
     37 H37        -7.3805   -7.5113   41.0560 H         1 UNK         0.0600 
     38 H38        -8.2628   -6.0874   40.5186 H         1 UNK         0.0600 
     39 H39       -14.6346   -4.5897   35.9830 H         1 UNK         0.0300 
     40 H40       -13.5013   -3.9270   37.1542 H         1 UNK         0.0300 
     41 H41       -14.6840   -5.1646   37.6452 H         1 UNK         0.0300 
     42 H42       -10.8611   -9.1839   34.3369 H         1 UNK         0.0300 
     43 H43       -10.8321   -9.8040   35.9833 H         1 UNK         0.0300 
     44 H44        -9.5738   -8.6751   35.4231 H         1 UNK         0.0300 
     45 H45        -9.8515   -7.8296   41.3197 H         1 UNK         0.0300 
@<TRIPOS>BOND
     1    1    2 ar   
     2    1    3 ar   
     3    1   27 1    
     4    2    5 ar   
     5    2   28 1    
     6    3    6 ar   
     7    3   29 1    
     8    4    7 ar   
     9    4   10 ar   
    10    4   30 1    
    11    5   11 ar   
    12    5   31 1    
    13    6   11 ar   
    14    6   32 1    
    15    7   12 ar   
    16    7   33 1    
    17    8   10 ar   
    18    8   13 ar   
    19    8   34 1    
    20    9   20 ar   
    21    9   22 ar   
    22    9   35 1    
    23   10   19 1    
    24   11   22 1    
    25   12   13 ar   
    26   12   24 1    
    27   13   25 1    
    28   14   15 1    
    29   14   20 ar   
    30   14   21 ar   
    31   15   23 2    
    32   15   26 1    
    33   16   19 1    
    34   16   36 1    
    35   16   37 1    
    36   16   38 1    
    37   17   24 1    
    38   17   39 1    
    39   17   40 1    
    40   17   41 1    
    41   18   25 1    
    42   18   42 1    
    43   18   43 1    
    44   18   44 1    
    45   19   26 1    
    46   19   45 1    
    47   21   22 ar   
@<TRIPOS>SUBSTRUCTURE
     1 UNK         1 GROUP             0       ****    0 ROOT    
@<TRIPOS>MOLECULE
ZINC92008107_13
45   47    1
SMALL
USER_CHARGES


@<TRIPOS>ATOM
      1 C1         -4.5914   -8.3919   36.1566 C.ar      1 UNK        -0.1150 
      2 C2         -4.9476   -9.6003   35.5270 C.ar      1 UNK        -0.1150 
      3 C3         -6.3828   -3.8390   39.4322 C.ar      1 UNK        -0.1150 
      4 C4         -7.0404   -5.7908   38.1440 C.ar      1 UNK        -0.1150 
      5 C5         -5.1846  -10.6703   37.7050 C.ar      1 UNK        -0.1150 
      6 C6         -6.3075   -5.2240   39.2057 C.ar      1 UNK        -0.1150 
      7 C7         -4.5348   -8.3179   37.5637 C.ar      1 UNK        -0.1150 
      8 C8         -4.8279   -9.4647   38.3445 C.ar      1 UNK        -0.1150 
      9 C9         -7.1369   -3.0088   38.5704 C.ar      1 UNK         0.0850 
     10 C10        -7.7981   -4.9860   37.2583 C.ar      1 UNK         0.0850 
     11 C11        -7.8255   -3.5743   37.4696 C.ar      1 UNK         0.0850 
     12 C12        -5.2444  -10.7380   36.3002 C.ar      1 UNK         0.2200 
     13 C13        -5.5212   -6.0926   40.1463 C.2       1 UNK         0.6150 
     14 C14        -4.7760   -9.4030   39.8689 C.3       1 UNK        -0.0050 
     15 C15        -4.1496   -7.0100   38.2411 C.3       1 UNK         0.0650 
     16 C16        -4.1242   -8.1106   40.3990 C.3       1 UNK        -0.0500 
     17 C17        -6.6390   -1.0485   39.8788 C.3       1 UNK         0.1100 
     18 C18        -8.4865   -6.9427   36.0124 C.3       1 UNK         0.1100 
     19 C19        -8.7889   -2.9726   35.3288 C.3       1 UNK         0.1100 
     20 N20        -4.6296   -6.9716   39.6276 N.am      1 UNK        -0.1400 
     21 O21        -5.7283   -5.9924   41.3549 O.2       1 UNK        -0.5000 
     22 O22        -7.2345   -1.6413   38.7347 O.3       1 UNK        -0.2850 
     23 O23        -8.5234   -5.5370   36.2195 O.3       1 UNK        -0.2850 
     24 O24        -8.5181   -2.6685   36.6877 O.3       1 UNK        -0.2850 
     25 F25        -5.5889  -11.8970   35.6926 F         1 UNK        -0.2200 
     26 H26        -4.3648   -7.5241   35.5539 H         1 UNK         0.1150 
     27 H27        -4.9928   -9.6604   34.4497 H         1 UNK         0.1150 
     28 H28        -5.8472   -3.4349   40.2782 H         1 UNK         0.1150 
     29 H29        -7.0057   -6.8638   38.0323 H         1 UNK         0.1150 
     30 H30        -5.4155  -11.5511   38.2858 H         1 UNK         0.1150 
     31 H31        -5.7994   -9.4722   40.2405 H         1 UNK         0.0600 
     32 H32        -4.2448  -10.2744   40.2543 H         1 UNK         0.0600 
     33 H33        -3.0610   -6.9427   38.2493 H         1 UNK         0.0600 
     34 H34        -4.4782   -6.1612   37.6420 H         1 UNK         0.0600 
     35 H35        -4.2936   -8.0125   41.4728 H         1 UNK         0.0600 
     36 H36        -3.0419   -8.1646   40.2736 H         1 UNK         0.0600 
     37 H37        -6.8544    0.0199   39.8809 H         1 UNK         0.0300 
     38 H38        -5.5546   -1.1654   39.8705 H         1 UNK         0.0300 
     39 H39        -7.0429   -1.4673   40.8018 H         1 UNK         0.0300 
     40 H40        -9.0991   -7.1935   35.1466 H         1 UNK         0.0300 
     41 H41        -8.8924   -7.4837   36.8684 H         1 UNK         0.0300 
     42 H42        -7.4734   -7.2916   35.8085 H         1 UNK         0.0300 
     43 H43        -8.9997   -2.0467   34.7938 H         1 UNK         0.0300 
     44 H44        -9.6705   -3.6070   35.2337 H         1 UNK         0.0300 
     45 H45        -7.9384   -3.4474   34.8376 H         1 UNK         0.0300 
@<TRIPOS>BOND
     1    1    2 ar   
     2    1    7 ar   
     3    1   26 1    
     4    2   12 ar   
     5    2   27 1    
     6    3    6 ar   
     7    3    9 ar   
     8    3   28 1    
     9    4    6 ar   
    10    4   10 ar   
    11    4   29 1    
    12    5    8 ar   
    13    5   12 ar   
    14    5   30 1    
    15    6   13 1    
    16    7    8 ar   
    17    7   15 1    
    18    8   14 1    
    19    9   11 ar   
    20    9   22 1    
    21   10   11 ar   
    22   10   23 1    
    23   11   24 1    
    24   12   25 1    
    25   13   20 am   BACKBONE|DICT|INTERRES
    26   13   21 2    
    27   14   16 1    
    28   14   31 1    
    29   14   32 1    
    30   15   20 1    
    31   15   33 1    
    32   15   34 1    
    33   16   20 1    
    34   16   35 1    
    35   16   36 1    
    36   17   22 1    
    37   17   37 1    
    38   17   38 1    
    39   17   39 1    
    40   18   23 1    
    41   18   40 1    
    42   18   41 1    
    43   18   42 1    
    44   19   24 1    
    45   19   43 1    
    46   19   44 1    
    47   19   45 1    
@<TRIPOS>SUBSTRUCTURE
     1 UNK         1 GROUP             0       ****    0 ROOT    
@<TRIPOS>MOLECULE
ZINC92028326_99
48   51    1
SMALL
USER_CHARGES


@<TRIPOS>ATOM
      1 C1         -5.7687  -10.7834   35.0546 C.ar      1 UNK        -0.1150 
      2 C2         -5.9844  -10.1305   36.2820 C.ar      1 UNK        -0.1150 
      3 C3         -5.5335  -12.1703   35.0203 C.ar      1 UNK        -0.1150 
      4 C4         -6.2155  -10.6444   40.0643 C.2       1 UNK        -0.1540 
      5 C5         -6.4732   -9.5069   40.8789 C.2       1 UNK        -0.1540 
      6 C6         -5.7325  -12.2509   37.4422 C.ar      1 UNK        -0.1150 
      7 C7         -5.9675  -10.8581   37.4929 C.ar      1 UNK        -0.4134 
      8 C8         -5.5136  -12.9189   36.2216 C.ar      1 UNK         0.0850 
      9 C9         -6.1855  -10.1946   38.7740 C.2       1 UNK         0.5364 
     10 C10        -6.6004   -8.4390   40.0332 C.2       1 UNK         0.0453 
     11 C11        -6.8358   -7.0101   40.3492 C.2       1 UNK         0.5777 
     12 C12        -7.1024   -2.5779   36.4736 C.3       1 UNK        -0.1200 
     13 C13        -6.3704   -2.2300   37.7558 C.3       1 UNK        -0.1200 
     14 C14        -7.9175   -6.5601   38.1082 C.3       1 UNK        -0.0500 
     15 C15        -7.6183   -4.7745   39.6848 C.3       1 UNK        -0.0500 
     16 C16        -6.9251   -3.6212   37.5513 C.3       1 UNK        -0.0600 
     17 C17        -8.7591   -5.3650   37.6426 C.3       1 UNK        -0.0600 
     18 C18        -8.0994   -4.1724   38.3602 C.3       1 UNK         0.2650 
     19 C19       -10.2442   -5.5770   38.0051 C.3       1 UNK        -0.1800 
     20 C20        -5.0439  -14.9735   35.0768 C.3       1 UNK         0.1100 
     21 N21        -7.3930   -6.1955   39.4258 N.am      1 UNK        -0.1400 
     22 O22        -6.5333   -6.6007   41.4697 O.2       1 UNK        -0.5000 
     23 O23        -6.4078   -8.8513   38.7474 O.3       1 UNK        -0.1900 
     24 O24        -9.0325   -3.1382   38.6014 O.3       1 UNK        -0.6830 
     25 O25        -5.2912  -14.2765   36.2885 O.3       1 UNK        -0.2850 
     26 H26        -5.7818  -10.2181   34.1343 H         1 UNK         0.1150 
     27 H27        -6.1609   -9.0641   36.2821 H         1 UNK         0.1150 
     28 H28        -5.3713  -12.6346   34.0605 H         1 UNK         0.1150 
     29 H29        -6.0632  -11.6650   40.3802 H         1 UNK         0.1260 
     30 H30        -6.5558   -9.4618   41.9554 H         1 UNK         0.1260 
     31 H31        -5.7141  -12.8347   38.3507 H         1 UNK         0.1150 
     32 H32        -8.0958   -2.1574   36.3275 H         1 UNK         0.0600 
     33 H33        -6.5101   -2.6893   35.5679 H         1 UNK         0.0600 
     34 H34        -5.2902   -2.1101   37.6995 H         1 UNK         0.0600 
     35 H35        -6.8719   -1.5626   38.4529 H         1 UNK         0.0600 
     36 H36        -8.5040   -7.4799   38.1360 H         1 UNK         0.0600 
     37 H37        -7.0804   -6.7184   37.4269 H         1 UNK         0.0600 
     38 H38        -6.7208   -4.2809   40.0626 H         1 UNK         0.0600 
     39 H39        -8.3869   -4.6921   40.4557 H         1 UNK         0.0600 
     40 H40        -6.1735   -4.3788   37.3338 H         1 UNK         0.0600 
     41 H41        -8.6949   -5.2493   36.5594 H         1 UNK         0.0600 
     42 H42       -10.3849   -5.6728   39.0820 H         1 UNK         0.0600 
     43 H43       -10.6423   -6.4750   37.5330 H         1 UNK         0.0600 
     44 H44       -10.8551   -4.7396   37.6665 H         1 UNK         0.0600 
     45 H45        -4.8815  -16.0287   35.2959 H         1 UNK         0.0300 
     46 H46        -4.1493  -14.5991   34.5775 H         1 UNK         0.0300 
     47 H47        -5.8939  -14.9053   34.3963 H         1 UNK         0.0300 
     48 H48        -8.5736   -2.4062   38.9827 H         1 UNK         0.4180 
@<TRIPOS>BOND
     1    1    2 ar   
     2    1    3 ar   
     3    1   26 1    
     4    2    7 ar   
     5    2   27 1    
     6    3    8 ar   
     7    3   28 1    
     8    4    5 1    
     9    4    9 2    
    10    4   29 1    
    11    5   10 2    
    12    5   30 1    
    13    6    7 ar   
    14    6    8 ar   
    15    6   31 1    
    16    7    9 1    
    17    8   25 1    
    18    9   23 1    
    19   10   11 1    
    20   10   23 1    
    21   11   21 am   BACKBONE|DICT|INTERRES
    22   11   22 2    
    23   12   13 1    
    24   12   16 1    
    25   12   32 1    
    26   12   33 1    
    27   13   16 1    
    28   13   34 1    
    29   13   35 1    
    30   14   17 1    
    31   14   21 1    
    32   14   36 1    
    33   14   37 1    
    34   15   18 1    
    35   15   21 1    
    36   15   38 1    
    37   15   39 1    
    38   16   18 1    
    39   16   40 1    
    40   17   18 1    
    41   17   19 1    
    42   17   41 1    
    43   18   24 1    
    44   19   42 1    
    45   19   43 1    
    46   19   44 1    
    47   20   25 1    
    48   20   45 1    
    49   20   46 1    
    50   20   47 1    
    51   24   48 1    
@<TRIPOS>SUBSTRUCTURE
     1 UNK         1 GROUP             0       ****    0 ROOT    
@<TRIPOS>MOLECULE
ZINC92248587_143
50   52    1
SMALL
USER_CHARGES


@<TRIPOS>ATOM
      1 C1         -7.7170  -13.8279   37.4632 C.ar      1 UNK        -0.1150 
      2 C2         -6.3184  -11.9159   36.9021 C.ar      1 UNK        -0.1150 
      3 C3         -7.2900  -14.4853   36.2921 C.ar      1 UNK        -0.1150 
      4 C4         -5.8893  -12.5752   35.7343 C.ar      1 UNK        -0.1150 
      5 C5         -8.1882  -11.2939   41.0153 C.ar      1 UNK        -0.3200 
      6 C6         -7.2282  -12.5430   37.7775 C.ar      1 UNK         0.0731 
      7 C7         -6.3665  -13.8619   35.4157 C.ar      1 UNK         0.0850 
      8 C8         -8.3924  -10.2282   40.0926 C.ar      1 UNK         0.2230 
      9 C9         -7.7215  -12.3288   40.2545 C.ar      1 UNK         0.0560 
     10 C10        -8.8563   -8.8805   40.5903 C.2       1 UNK         0.6150 
     11 C11       -10.9080   -5.0752   37.6304 C.2       1 UNK         0.5000 
     12 C12        -9.7202   -8.1707   37.3575 C.3       1 UNK        -0.1200 
     13 C13       -10.4453   -8.6548   38.6399 C.3       1 UNK        -0.0500 
     14 C14        -9.0764   -6.7655   37.4298 C.3       1 UNK        -0.0500 
     15 C15       -10.3020   -6.8939   40.3539 C.3       1 UNK        -0.0500 
     16 C16        -9.5963   -5.7457   39.6116 C.3       1 UNK        -0.0500 
     17 C17        -7.3068  -13.7010   40.6756 C.3       1 UNK        -0.0650 
     18 C18       -11.1681   -5.1619   36.1273 C.3       1 UNK        -0.1800 
     19 C19        -6.3914  -15.7064   33.8801 C.3       1 UNK         0.1100 
     20 N20        -8.0359  -10.5783   38.8638 N.2       1 UNK        -0.5310 
     21 N21        -7.6563  -11.8713   38.9470 N.pl3     1 UNK         0.1189 
     22 N22        -9.7985   -8.1987   39.8846 N.am      1 UNK        -0.1400 
     23 N23        -9.9037   -5.8040   38.1741 N.am      1 UNK        -0.1400 
     24 O24        -8.4034   -8.4645   41.6593 O.2       1 UNK        -0.5000 
     25 O25       -11.6273   -4.3365   38.3006 O.2       1 UNK        -0.5000 
     26 O26        -5.8949  -14.4295   34.2527 O.3       1 UNK        -0.2850 
     27 H27        -8.4331  -14.3085   38.1121 H         1 UNK         0.1150 
     28 H28        -5.9492  -10.9267   37.1314 H         1 UNK         0.1150 
     29 H29        -7.6893  -15.4663   36.0867 H         1 UNK         0.1150 
     30 H30        -5.1892  -12.0879   35.0719 H         1 UNK         0.1150 
     31 H31        -8.3505  -11.2780   42.0830 H         1 UNK         0.1500 
     32 H32        -8.9419   -8.8827   37.0827 H         1 UNK         0.0600 
     33 H33       -10.4308   -8.2073   36.5319 H         1 UNK         0.0600 
     34 H34       -11.4715   -8.2876   38.6123 H         1 UNK         0.0600 
     35 H35       -10.5573   -9.7396   38.6215 H         1 UNK         0.0600 
     36 H36        -8.1016   -6.8572   37.9109 H         1 UNK         0.0600 
     37 H37        -8.8461   -6.4050   36.4270 H         1 UNK         0.0600 
     38 H38       -10.1529   -6.7695   41.4280 H         1 UNK         0.0600 
     39 H39       -11.3818   -6.8190   40.2208 H         1 UNK         0.0600 
     40 H40        -9.9091   -4.7909   40.0388 H         1 UNK         0.0600 
     41 H41        -8.5200   -5.7872   39.7833 H         1 UNK         0.0600 
     42 H42        -8.1071  -14.4194   40.5009 H         1 UNK         0.0600 
     43 H43        -6.4224  -14.0310   40.1300 H         1 UNK         0.0600 
     44 H44        -7.0654  -13.7221   41.7384 H         1 UNK         0.0600 
     45 H45       -11.3890   -6.1844   35.8262 H         1 UNK         0.0600 
     46 H46       -10.3086   -4.7988   35.5649 H         1 UNK         0.0600 
     47 H47       -12.0256   -4.5443   35.8595 H         1 UNK         0.0600 
     48 H48        -5.9332  -16.0092   32.9387 H         1 UNK         0.0300 
     49 H49        -7.4714  -15.6838   33.7286 H         1 UNK         0.0300 
     50 H50        -6.1456  -16.4640   34.6252 H         1 UNK         0.0300 
@<TRIPOS>BOND
     1    1    3 ar   
     2    1    6 ar   
     3    1   27 1    
     4    2    4 ar   
     5    2    6 ar   
     6    2   28 1    
     7    3    7 ar   
     8    3   29 1    
     9    4    7 ar   
    10    4   30 1    
    11    5    8 ar   
    12    5    9 ar   
    13    5   31 1    
    14    6   21 1    
    15    7   26 1    
    16    8   10 1    
    17    8   20 ar   
    18    9   17 1    
    19    9   21 ar   
    20   10   22 am   BACKBONE|DICT|INTERRES
    21   10   24 2    
    22   11   18 1    
    23   11   23 am   BACKBONE|DICT|INTERRES
    24   11   25 2    
    25   12   13 1    
    26   12   14 1    
    27   12   32 1    
    28   12   33 1    
    29   13   22 1    
    30   13   34 1    
    31   13   35 1    
    32   14   23 1    
    33   14   36 1    
    34   14   37 1    
    35   15   16 1    
    36   15   22 1    
    37   15   38 1    
    38   15   39 1    
    39   16   23 1    
    40   16   40 1    
    41   16   41 1    
    42   17   42 1    
    43   17   43 1    
    44   17   44 1    
    45   18   45 1    
    46   18   46 1    
    47   18   47 1    
    48   19   26 1    
    49   19   48 1    
    50   19   49 1    
    51   19   50 1    
    52   20   21 ar   
@<TRIPOS>SUBSTRUCTURE
     1 UNK         1 GROUP             0       ****    0 ROOT    
@<TRIPOS>MOLECULE
ZINC92871658_11
39   42    1
SMALL
USER_CHARGES


@<TRIPOS>ATOM
      1 C1         -8.8229  -17.9122   36.3802 C.ar      1 UNK        -0.1150 
      2 C2         -9.1928  -18.0224   37.7339 C.ar      1 UNK        -0.1150 
      3 C3         -8.8980  -16.6652   35.7318 C.ar      1 UNK        -0.1150 
      4 C4        -11.3802   -6.8794   40.4206 C.ar      1 UNK        -0.4470 
      5 C5         -9.6430  -16.8884   38.4391 C.ar      1 UNK        -0.1150 
      6 C6         -9.3474  -15.5310   36.4358 C.ar      1 UNK        -0.1150 
      7 C7        -11.1075   -8.2327   40.1592 C.ar      1 UNK         0.2270 
      8 C8        -12.5134   -6.2966   39.8344 C.ar      1 UNK         0.4730 
      9 C9        -10.9584  -14.4853   39.5651 C.ar      1 UNK         0.2778 
     10 C10        -9.7310  -15.6323   37.7922 C.ar      1 UNK         0.1225 
     11 C11       -11.9717   -8.9626   39.3050 C.ar      1 UNK        -0.2070 
     12 C12       -13.0897   -8.2695   38.7793 C.ar      1 UNK         0.5716 
     13 C13       -10.6152  -12.5202   39.0498 C.ar      1 UNK         0.4656 
     14 C14       -10.6118  -11.0079   39.0934 C.2       1 UNK         0.6150 
     15 C15       -12.9967  -11.0241   38.4420 C.3       1 UNK        -0.0500 
     16 C16       -13.6421  -10.1076   37.3917 C.3       1 UNK         0.1700 
     17 C17       -14.8860  -10.7373   36.7545 C.3       1 UNK        -0.1800 
     18 N18       -13.3574   -6.9768   39.0397 N.ar      1 UNK        -0.6780 
     19 N19       -11.2740  -13.2683   39.9943 N.2       1 UNK        -0.6329 
     20 N20        -9.9527  -13.1916   38.1049 N.2       1 UNK        -0.5282 
     21 N21       -10.1840  -14.4721   38.4738 N.pl3     1 UNK         0.0656 
     22 N22       -11.8079  -10.3607   39.0040 N.am      1 UNK        -0.1550 
     23 O23        -9.5301  -10.4194   39.1561 O.2       1 UNK        -0.5000 
     24 O24       -14.0301   -8.8761   37.9805 O.3       1 UNK        -0.2866 
     25 H25        -8.4756  -18.7820   35.8405 H         1 UNK         0.1150 
     26 H26        -9.1259  -18.9780   38.2340 H         1 UNK         0.1150 
     27 H27        -8.6089  -16.5754   34.6946 H         1 UNK         0.1150 
     28 H28       -10.7358   -6.3000   41.0648 H         1 UNK         0.1550 
     29 H29        -9.9022  -16.9998   39.4808 H         1 UNK         0.1150 
     30 H30        -9.3987  -14.5771   35.9303 H         1 UNK         0.1150 
     31 H31       -10.2536   -8.6834   40.6409 H         1 UNK         0.0650 
     32 H32       -12.7551   -5.2600   40.0176 H         1 UNK         0.0120 
     33 H33       -11.3148  -15.3823   40.0502 H         1 UNK         0.1146 
     34 H34       -13.6970  -11.2419   39.2501 H         1 UNK         0.0600 
     35 H35       -12.7803  -11.9752   37.9544 H         1 UNK         0.0600 
     36 H36       -12.9182   -9.8949   36.6027 H         1 UNK         0.0300 
     37 H37       -15.6520  -10.9420   37.5030 H         1 UNK         0.0600 
     38 H38       -14.6433  -11.6756   36.2555 H         1 UNK         0.0600 
     39 H39       -15.3203  -10.0686   36.0108 H         1 UNK         0.0600 
@<TRIPOS>BOND
     1    1    2 ar   
     2    1    3 ar   
     3    1   25 1    
     4    2    5 ar   
     5    2   26 1    
     6    3    6 ar   
     7    3   27 1    
     8    4    7 ar   
     9    4    8 ar   
    10    4   28 1    
    11    5   10 ar   
    12    5   29 1    
    13    6   10 ar   
    14    6   30 1    
    15    7   11 ar   
    16    7   31 1    
    17    8   18 ar   
    18    8   32 1    
    19    9   19 ar   
    20    9   21 ar   
    21    9   33 1    
    22   10   21 1    
    23   11   12 ar   
    24   11   22 1    
    25   12   18 ar   
    26   12   24 1    
    27   13   14 1    
    28   13   19 ar   
    29   13   20 ar   
    30   14   22 am   BACKBONE|DICT|INTERRES
    31   14   23 2    
    32   15   16 1    
    33   15   22 1    
    34   15   34 1    
    35   15   35 1    
    36   16   17 1    
    37   16   24 1    
    38   16   36 1    
    39   17   37 1    
    40   17   38 1    
    41   17   39 1    
    42   20   21 ar   
@<TRIPOS>SUBSTRUCTURE
     1 UNK         1 GROUP             0       ****    0 ROOT    
@<TRIPOS>MOLECULE
ZINC92871659_1
39   42    1
SMALL
USER_CHARGES


@<TRIPOS>ATOM
      1 C1         -3.8789  -11.7080   35.5120 C.ar      1 UNK        -0.1150 
      2 C2         -4.0407  -12.2192   36.8136 C.ar      1 UNK        -0.1150 
      3 C3         -4.2162  -10.3695   35.2367 C.ar      1 UNK        -0.1150 
      4 C4         -5.9229   -1.7424   40.3262 C.ar      1 UNK        -0.4470 
      5 C5         -4.5459  -11.3955   37.8394 C.ar      1 UNK        -0.1150 
      6 C6         -4.7205   -9.5452   36.2616 C.ar      1 UNK        -0.1150 
      7 C7         -5.8594   -3.1432   40.2372 C.ar      1 UNK         0.2270 
      8 C8         -6.9867   -1.0768   39.6998 C.ar      1 UNK         0.4730 
      9 C9         -6.0310   -9.6209   39.6879 C.ar      1 UNK         0.2778 
     10 C10        -4.8972  -10.0511   37.5691 C.ar      1 UNK         0.1225 
     11 C11        -6.8727   -3.8412   39.5334 C.ar      1 UNK        -0.2070 
     12 C12        -7.8918   -3.0602   38.9349 C.ar      1 UNK         0.5716 
     13 C13        -6.0311   -7.5602   39.7059 C.ar      1 UNK         0.4656 
     14 C14        -6.2235   -6.1325   40.1711 C.2       1 UNK         0.6150 
     15 C15        -7.7736   -5.7577   38.2818 C.3       1 UNK        -0.0500 
     16 C16        -9.1104   -5.0042   38.3482 C.3       1 UNK         0.1700 
     17 C17       -10.0917   -5.4634   37.2639 C.3       1 UNK        -0.1800 
     18 N18        -7.9453   -1.7178   39.0093 N.ar      1 UNK        -0.6780 
     19 N19        -6.4510   -8.6265   40.4605 N.2       1 UNK        -0.6329 
     20 N20        -5.4050   -7.8444   38.5595 N.2       1 UNK        -0.5282 
     21 N21        -5.4119   -9.1974   38.5798 N.pl3     1 UNK         0.0656 
     22 N22        -6.8809   -5.2687   39.3466 N.am      1 UNK        -0.1550 
     23 O23        -5.8290   -5.8184   41.2962 O.2       1 UNK        -0.5000 
     24 O24        -8.9032   -3.6101   38.1835 O.3       1 UNK        -0.2866 
     25 H25        -3.4905  -12.3399   34.7256 H         1 UNK         0.1150 
     26 H26        -3.7718  -13.2440   37.0266 H         1 UNK         0.1150 
     27 H27        -4.0870   -9.9723   34.2403 H         1 UNK         0.1150 
     28 H28        -5.1658   -1.1871   40.8596 H         1 UNK         0.1550 
     29 H29        -4.6433  -11.8092   38.8315 H         1 UNK         0.1150 
     30 H30        -4.9753   -8.5184   36.0415 H         1 UNK         0.1150 
     31 H31        -5.0197   -3.6452   40.6925 H         1 UNK         0.0650 
     32 H32        -7.0643   -0.0005   39.7450 H         1 UNK         0.0120 
     33 H33        -6.1971  -10.6586   39.9375 H         1 UNK         0.1146 
     34 H34        -7.9979   -6.8227   38.3545 H         1 UNK         0.0600 
     35 H35        -7.2902   -5.6061   37.3153 H         1 UNK         0.0600 
     36 H36        -9.5703   -5.1683   39.3247 H         1 UNK         0.0300 
     37 H37        -9.6867   -5.2900   36.2665 H         1 UNK         0.0600 
     38 H38       -11.0329   -4.9178   37.3382 H         1 UNK         0.0600 
     39 H39       -10.3164   -6.5262   37.3570 H         1 UNK         0.0600 
@<TRIPOS>BOND
     1    1    2 ar   
     2    1    3 ar   
     3    1   25 1    
     4    2    5 ar   
     5    2   26 1    
     6    3    6 ar   
     7    3   27 1    
     8    4    7 ar   
     9    4    8 ar   
    10    4   28 1    
    11    5   10 ar   
    12    5   29 1    
    13    6   10 ar   
    14    6   30 1    
    15    7   11 ar   
    16    7   31 1    
    17    8   18 ar   
    18    8   32 1    
    19    9   19 ar   
    20    9   21 ar   
    21    9   33 1    
    22   10   21 1    
    23   11   12 ar   
    24   11   22 1    
    25   12   18 ar   
    26   12   24 1    
    27   13   14 1    
    28   13   19 ar   
    29   13   20 ar   
    30   14   22 am   BACKBONE|DICT|INTERRES
    31   14   23 2    
    32   15   16 1    
    33   15   22 1    
    34   15   34 1    
    35   15   35 1    
    36   16   17 1    
    37   16   24 1    
    38   16   36 1    
    39   17   37 1    
    40   17   38 1    
    41   17   39 1    
    42   20   21 ar   
@<TRIPOS>SUBSTRUCTURE
     1 UNK         1 GROUP             0       ****    0 ROOT    
@<TRIPOS>MOLECULE
ZINC94100580_131
51   53    1
SMALL
USER_CHARGES


@<TRIPOS>ATOM
      1 C1        -12.9852  -17.2571   35.8473 C.ar      1 UNK        -0.1150 
      2 C2        -11.7797  -16.7198   35.3365 C.ar      1 UNK        -0.1150 
      3 C3        -13.0773  -17.6524   37.1998 C.ar      1 UNK        -0.1150 
      4 C4        -10.6511  -16.5694   36.1721 C.ar      1 UNK        -0.1150 
      5 C5        -13.3974  -13.6070   38.3614 C.ar      1 UNK        -0.1150 
      6 C6        -12.9354  -11.6388   39.7087 C.ar      1 UNK        -0.1150 
      7 C7        -12.7931  -13.0231   39.4962 C.ar      1 UNK        -0.1150 
      8 C8        -11.9436  -17.4958   38.0157 C.ar      1 UNK        -0.1150 
      9 C9        -10.7620  -16.9674   37.5155 C.ar      1 UNK        -0.1150 
     10 C10       -14.1071  -12.8258   37.4310 C.ar      1 UNK         0.0850 
     11 C11       -13.6413  -10.8315   38.7978 C.ar      1 UNK         0.0850 
     12 C12       -14.1983  -11.4187   37.6273 C.ar      1 UNK         0.0850 
     13 C13       -12.0449  -13.8584   40.4926 C.2       1 UNK         0.6150 
     14 C14       -11.8341  -17.8056   39.4828 C.3       1 UNK        -0.0050 
     15 C15        -9.7095  -16.8562   38.5835 C.3       1 UNK        -0.0050 
     16 C16       -10.4576  -17.2021   39.9114 C.3       1 UNK         0.0000 
     17 C17        -9.6523  -18.2185   40.7405 C.3       1 UNK        -0.1800 
     18 C18       -15.8448  -13.0332   35.7848 C.3       1 UNK         0.1100 
     19 C19       -14.9311   -8.8172   38.8220 C.3       1 UNK         0.1100 
     20 C20       -13.8107  -10.0916   35.7630 C.3       1 UNK         0.1100 
     21 C21       -10.6797  -15.9180   40.7494 C.3       1 UNK         0.0800 
     22 N22       -11.4386  -14.9345   39.9882 N.am      1 UNK        -0.5000 
     23 O23       -11.9615  -13.5348   41.6749 O.2       1 UNK        -0.5000 
     24 O24       -14.6367  -13.5121   36.3586 O.3       1 UNK        -0.2850 
     25 O25       -13.7104   -9.4895   39.1022 O.3       1 UNK        -0.2850 
     26 O26       -14.7673  -10.6238   36.6661 O.3       1 UNK        -0.2850 
     27 H27       -13.8431  -17.3609   35.1988 H         1 UNK         0.1150 
     28 H28       -11.7245  -16.4176   34.3008 H         1 UNK         0.1150 
     29 H29       -13.9982  -18.0550   37.5966 H         1 UNK         0.1150 
     30 H30        -9.7315  -16.1518   35.7881 H         1 UNK         0.1150 
     31 H31       -13.3333  -14.6719   38.1885 H         1 UNK         0.1150 
     32 H32       -12.4989  -11.1858   40.5880 H         1 UNK         0.1150 
     33 H33       -12.6778  -17.3920   40.0374 H         1 UNK         0.0600 
     34 H34       -11.8593  -18.8892   39.6049 H         1 UNK         0.0600 
     35 H35        -8.9222  -17.5775   38.3612 H         1 UNK         0.0600 
     36 H36        -9.2548  -15.8646   38.5901 H         1 UNK         0.0600 
     37 H37        -8.6791  -17.8162   41.0240 H         1 UNK         0.0600 
     38 H38        -9.4770  -19.1386   40.1815 H         1 UNK         0.0600 
     39 H39       -10.1781  -18.4873   41.6575 H         1 UNK         0.0600 
     40 H40       -16.3584  -13.8606   35.2956 H         1 UNK         0.0300 
     41 H41       -15.6492  -12.2792   35.0228 H         1 UNK         0.0300 
     42 H42       -16.5242  -12.6234   36.5341 H         1 UNK         0.0300 
     43 H43       -15.7992   -9.4704   38.9260 H         1 UNK         0.0300 
     44 H44       -14.9247   -8.3872   37.8209 H         1 UNK         0.0300 
     45 H45       -15.0544   -7.9950   39.5264 H         1 UNK         0.0300 
     46 H46       -14.3151   -9.4844   35.0118 H         1 UNK         0.0300 
     47 H47       -13.2719  -10.8872   35.2460 H         1 UNK         0.0300 
     48 H48       -13.0863   -9.4576   36.2765 H         1 UNK         0.0300 
     49 H49        -9.7266  -15.4753   41.0436 H         1 UNK         0.0600 
     50 H50       -11.2124  -16.1540   41.6731 H         1 UNK         0.0600 
     51 H51       -11.5489  -15.1078   38.9988 H         1 UNK         0.3000 
@<TRIPOS>BOND
     1    1    2 ar   
     2    1    3 ar   
     3    1   27 1    
     4    2    4 ar   
     5    2   28 1    
     6    3    8 ar   
     7    3   29 1    
     8    4    9 ar   
     9    4   30 1    
    10    5    7 ar   
    11    5   10 ar   
    12    5   31 1    
    13    6    7 ar   
    14    6   11 ar   
    15    6   32 1    
    16    7   13 1    
    17    8    9 ar   
    18    8   14 1    
    19    9   15 1    
    20   10   12 ar   
    21   10   24 1    
    22   11   12 ar   
    23   11   25 1    
    24   12   26 1    
    25   13   22 am   BACKBONE|DICT|INTERRES
    26   13   23 2    
    27   14   16 1    
    28   14   33 1    
    29   14   34 1    
    30   15   16 1    
    31   15   35 1    
    32   15   36 1    
    33   16   17 1    
    34   16   21 1    
    35   17   37 1    
    36   17   38 1    
    37   17   39 1    
    38   18   24 1    
    39   18   40 1    
    40   18   41 1    
    41   18   42 1    
    42   19   25 1    
    43   19   43 1    
    44   19   44 1    
    45   19   45 1    
    46   20   26 1    
    47   20   46 1    
    48   20   47 1    
    49   20   48 1    
    50   21   22 1    
    51   21   49 1    
    52   21   50 1    
    53   22   51 1    
@<TRIPOS>SUBSTRUCTURE
     1 UNK         1 GROUP             0       ****    0 ROOT    
@<TRIPOS>MOLECULE
ZINC94199558_2
31   32    1
SMALL
USER_CHARGES


@<TRIPOS>ATOM
      1 C1        -22.4010  -18.0043   38.2843 C.ar      1 UNK        -0.1150 
      2 C2        -23.1651  -17.1078   37.5185 C.ar      1 UNK        -0.1150 
      3 C3        -21.4893  -16.1277   39.5273 C.ar      1 UNK        -0.1150 
      4 C4        -21.1475  -22.2149   40.2599 C.ar      1 UNK         0.2270 
      5 C5        -19.9531  -21.5115   38.2849 C.ar      1 UNK         0.4730 
      6 C6        -21.5447  -17.5217   39.2987 C.ar      1 UNK        -0.1150 
      7 C7        -23.1019  -15.7179   37.7328 C.ar      1 UNK         0.0850 
      8 C8        -22.2570  -15.2089   38.7640 C.ar      1 UNK         0.0850 
      9 C9        -20.4895  -22.5504   39.0646 C.ar      1 UNK        -0.1120 
     10 C10       -21.2473  -20.8622   40.6340 C.ar      1 UNK        -0.1120 
     11 C11       -20.6715  -19.8821   39.7857 C.ar      1 UNK         0.3700 
     12 C12       -20.7120  -18.4336   40.1485 C.2       1 UNK         0.7000 
     13 C13       -23.7334  -13.5679   36.8427 C.3       1 UNK         0.1100 
     14 C14       -21.3841  -13.3490   40.0410 C.3       1 UNK         0.1100 
     15 N15       -20.0428  -20.2120   38.6290 N.ar      1 UNK        -0.6780 
     16 O16       -20.0786  -18.0084   41.1178 O.2       1 UNK        -0.4700 
     17 O17       -23.9081  -14.9724   36.8950 O.3       1 UNK        -0.2850 
     18 O18       -22.2167  -13.8490   39.0042 O.3       1 UNK        -0.2850 
     19 Cl19      -20.3479  -24.1961   38.5669 Cl        1 UNK        -0.1800 
     20 Cl20      -22.0797  -20.4577   42.0961 Cl        1 UNK        -0.1800 
     21 H21       -22.4856  -19.0599   38.0715 H         1 UNK         0.1150 
     22 H22       -23.8125  -17.4891   36.7422 H         1 UNK         0.1150 
     23 H23       -20.8378  -15.7774   40.3133 H         1 UNK         0.1150 
     24 H24       -21.5751  -22.9871   40.8823 H         1 UNK         0.0650 
     25 H25       -19.4417  -21.7277   37.3584 H         1 UNK         0.0120 
     26 H26       -24.2542  -12.8149   36.2518 H         1 UNK         0.0300 
     27 H27       -23.3969  -13.7555   35.8229 H         1 UNK         0.0300 
     28 H28       -24.7339  -13.5381   37.2749 H         1 UNK         0.0300 
     29 H29       -21.4797  -12.2643   40.0849 H         1 UNK         0.0300 
     30 H30       -21.6775  -13.7430   41.0149 H         1 UNK         0.0300 
     31 H31       -20.3337  -13.5779   39.8566 H         1 UNK         0.0300 
@<TRIPOS>BOND
     1    1    2 ar   
     2    1    6 ar   
     3    1   21 1    
     4    2    7 ar   
     5    2   22 1    
     6    3    6 ar   
     7    3    8 ar   
     8    3   23 1    
     9    4    9 ar   
    10    4   10 ar   
    11    4   24 1    
    12    5    9 ar   
    13    5   15 ar   
    14    5   25 1    
    15    6   12 1    
    16    7    8 ar   
    17    7   17 1    
    18    8   18 1    
    19    9   19 1    
    20   10   11 ar   
    21   10   20 1    
    22   11   12 1    
    23   11   15 ar   
    24   12   16 2    
    25   13   17 1    
    26   13   26 1    
    27   13   27 1    
    28   13   28 1    
    29   14   18 1    
    30   14   29 1    
    31   14   30 1    
    32   14   31 1    
@<TRIPOS>SUBSTRUCTURE
     1 UNK         1 GROUP             0       ****    0 ROOT    
@<TRIPOS>MOLECULE
ZINC94650505_225
39   40    1
SMALL
USER_CHARGES


@<TRIPOS>ATOM
      1 C1         -5.5198  -10.3208   35.8200 C.ar      1 UNK        -0.1150 
      2 C2         -5.7943  -10.6312   37.1650 C.ar      1 UNK        -0.1150 
      3 C3         -4.8349   -9.1336   35.5025 C.ar      1 UNK        -0.1150 
      4 C4         -5.3842   -9.7582   38.1919 C.ar      1 UNK        -0.1150 
      5 C5         -4.4299   -8.2596   36.5295 C.ar      1 UNK        -0.1150 
      6 C6         -7.1787   -6.0481   38.4848 C.ar      1 UNK        -0.1150 
      7 C7         -6.8520   -3.9733   39.7216 C.ar      1 UNK        -0.1150 
      8 C8         -7.8834   -3.9285   37.5237 C.ar      1 UNK        -0.1150 
      9 C9         -6.7188   -5.3787   39.6443 C.ar      1 UNK        -0.1150 
     10 C10        -4.6957   -8.5588   37.8807 C.ar      1 UNK         0.0850 
     11 C11        -7.7725   -5.3274   37.4204 C.ar      1 UNK         0.0850 
     12 C12        -7.4291   -3.2360   38.6608 C.ar      1 UNK         0.0850 
     13 C13        -6.1110   -6.0978   40.8043 C.2       1 UNK         0.5850 
     14 C14        -8.2462   -7.3203   36.1628 C.3       1 UNK         0.1100 
     15 C15        -7.1050   -1.1371   39.7814 C.3       1 UNK         0.1100 
     16 C16        -5.8423   -7.6020   40.7060 C.3       1 UNK        -0.1200 
     17 C17        -4.4213   -7.9108   40.1998 C.3       1 UNK         0.1400 
     18 O18        -5.8093   -5.5310   41.8547 O.2       1 UNK        -0.4700 
     19 O19        -8.2619   -5.9045   36.2683 O.3       1 UNK        -0.2850 
     20 O20        -7.5845   -1.8666   38.6614 O.3       1 UNK        -0.2850 
     21 O21        -4.2630   -7.6385   38.8113 O.3       1 UNK        -0.2850 
     22 H22        -5.8309  -10.9930   35.0329 H         1 UNK         0.1150 
     23 H23        -6.3170  -11.5443   37.4104 H         1 UNK         0.1150 
     24 H24        -4.6215   -8.8894   34.4719 H         1 UNK         0.1150 
     25 H25        -5.6116  -10.0349   39.2094 H         1 UNK         0.1150 
     26 H26        -3.9086   -7.3465   36.2801 H         1 UNK         0.1150 
     27 H27        -7.0750   -7.1164   38.4054 H         1 UNK         0.1150 
     28 H28        -6.4996   -3.4723   40.6111 H         1 UNK         0.1150 
     29 H29        -8.3300   -3.3730   36.7124 H         1 UNK         0.1150 
     30 H30        -8.6978   -7.6161   35.2162 H         1 UNK         0.0300 
     31 H31        -8.8202   -7.7883   36.9634 H         1 UNK         0.0300 
     32 H32        -7.2284   -7.7071   36.1752 H         1 UNK         0.0300 
     33 H33        -7.2852   -0.0741   39.6222 H         1 UNK         0.0300 
     34 H34        -6.0309   -1.2725   39.9148 H         1 UNK         0.0300 
     35 H35        -7.6233   -1.4254   40.6967 H         1 UNK         0.0300 
     36 H36        -5.9380   -7.9972   41.7171 H         1 UNK         0.0600 
     37 H37        -6.6057   -8.1115   40.1239 H         1 UNK         0.0600 
     38 H38        -3.7034   -7.2873   40.7348 H         1 UNK         0.0300 
     39 H39        -4.1315   -8.9347   40.4372 H         1 UNK         0.0300 
@<TRIPOS>BOND
     1    1    2 ar   
     2    1    3 ar   
     3    1   22 1    
     4    2    4 ar   
     5    2   23 1    
     6    3    5 ar   
     7    3   24 1    
     8    4   10 ar   
     9    4   25 1    
    10    5   10 ar   
    11    5   26 1    
    12    6    9 ar   
    13    6   11 ar   
    14    6   27 1    
    15    7    9 ar   
    16    7   12 ar   
    17    7   28 1    
    18    8   11 ar   
    19    8   12 ar   
    20    8   29 1    
    21    9   13 1    
    22   10   21 1    
    23   11   19 1    
    24   12   20 1    
    25   13   16 1    
    26   13   18 2    
    27   14   19 1    
    28   14   30 1    
    29   14   31 1    
    30   14   32 1    
    31   15   20 1    
    32   15   33 1    
    33   15   34 1    
    34   15   35 1    
    35   16   17 1    
    36   16   36 1    
    37   16   37 1    
    38   17   21 1    
    39   17   38 1    
    40   17   39 1    
@<TRIPOS>SUBSTRUCTURE
     1 UNK         1 GROUP             0       ****    0 ROOT    
@<TRIPOS>MOLECULE
ZINC94650506_57
39   40    1
SMALL
USER_CHARGES


@<TRIPOS>ATOM
      1 C1         -6.0470   -9.8300   41.4780 C.ar      1 UNK        -0.1150 
      2 C2         -6.3698   -8.4723   41.6581 C.ar      1 UNK        -0.1150 
      3 C3         -5.5707  -10.2800   40.2328 C.ar      1 UNK        -0.1150 
      4 C4         -5.7215   -8.0180   39.3510 C.ar      1 UNK        -0.1150 
      5 C5         -7.9731   -5.9387   38.7120 C.ar      1 UNK        -0.1150 
      6 C6         -6.7853   -3.9766   39.5468 C.ar      1 UNK        -0.1150 
      7 C7         -8.1221   -3.8247   37.5228 C.ar      1 UNK        -0.1150 
      8 C8         -6.2232   -7.5577   40.5922 C.ar      1 UNK        -0.1150 
      9 C9         -7.1119   -5.3451   39.6636 C.ar      1 UNK        -0.1150 
     10 C10        -5.4026   -9.3848   39.1588 C.ar      1 UNK         0.0850 
     11 C11        -8.4774   -5.1834   37.6271 C.ar      1 UNK         0.0850 
     12 C12        -7.2867   -3.2047   38.4720 C.ar      1 UNK         0.0850 
     13 C13        -6.5663   -6.1225   40.8122 C.2       1 UNK         0.7000 
     14 C14        -4.3068   -9.8807   35.6680 C.3       1 UNK        -0.1800 
     15 C15        -9.6786   -7.0590   36.7253 C.3       1 UNK         0.1100 
     16 C16        -6.2120   -1.2037   39.2514 C.3       1 UNK         0.1100 
     17 C17        -4.7909   -9.0497   36.8573 C.3       1 UNK         0.1400 
     18 O18        -6.4011   -5.5926   41.9113 O.2       1 UNK        -0.4700 
     19 O19        -9.3058   -5.6904   36.6497 O.3       1 UNK        -0.2850 
     20 O20        -7.0107   -1.8682   38.2831 O.3       1 UNK        -0.2850 
     21 O21        -4.9313   -9.9128   37.9768 O.3       1 UNK        -0.2850 
     22 H22        -6.1630  -10.5271   42.2953 H         1 UNK         0.1150 
     23 H23        -6.7323   -8.1323   42.6190 H         1 UNK         0.1150 
     24 H24        -5.3253  -11.3236   40.0980 H         1 UNK         0.1150 
     25 H25        -5.5829   -7.3047   38.5529 H         1 UNK         0.1150 
     26 H26        -8.2388   -6.9784   38.8308 H         1 UNK         0.1150 
     27 H27        -6.1418   -3.5389   40.2963 H         1 UNK         0.1150 
     28 H28        -8.5061   -3.2414   36.6988 H         1 UNK         0.1150 
     29 H29        -3.3484  -10.3525   35.8862 H         1 UNK         0.0600 
     30 H30        -5.0203  -10.6689   35.4271 H         1 UNK         0.0600 
     31 H31        -4.1810   -9.2589   34.7818 H         1 UNK         0.0600 
     32 H32       -10.3307   -7.3007   35.8860 H         1 UNK         0.0300 
     33 H33       -10.2304   -7.2720   37.6417 H         1 UNK         0.0300 
     34 H34        -8.8083   -7.7140   36.6658 H         1 UNK         0.0300 
     35 H35        -6.1067   -0.1553   38.9729 H         1 UNK         0.0300 
     36 H36        -5.2102   -1.6321   39.3046 H         1 UNK         0.0300 
     37 H37        -6.6731   -1.2369   40.2394 H         1 UNK         0.0300 
     38 H38        -5.7461   -8.5823   36.6121 H         1 UNK         0.0300 
     39 H39        -4.0685   -8.2609   37.0727 H         1 UNK         0.0300 
@<TRIPOS>BOND
     1    1    2 ar   
     2    1    3 ar   
     3    1   22 1    
     4    2    8 ar   
     5    2   23 1    
     6    3   10 ar   
     7    3   24 1    
     8    4    8 ar   
     9    4   10 ar   
    10    4   25 1    
    11    5    9 ar   
    12    5   11 ar   
    13    5   26 1    
    14    6    9 ar   
    15    6   12 ar   
    16    6   27 1    
    17    7   11 ar   
    18    7   12 ar   
    19    7   28 1    
    20    8   13 1    
    21    9   13 1    
    22   10   21 1    
    23   11   19 1    
    24   12   20 1    
    25   13   18 2    
    26   14   17 1    
    27   14   29 1    
    28   14   30 1    
    29   14   31 1    
    30   15   19 1    
    31   15   32 1    
    32   15   33 1    
    33   15   34 1    
    34   16   20 1    
    35   16   35 1    
    36   16   36 1    
    37   16   37 1    
    38   17   21 1    
    39   17   38 1    
    40   17   39 1    
@<TRIPOS>SUBSTRUCTURE
     1 UNK         1 GROUP             0       ****    0 ROOT    
@<TRIPOS>MOLECULE
ZINC95475732_41
51   53    1
SMALL
USER_CHARGES


@<TRIPOS>ATOM
      1 C1         -8.3291  -12.6104   35.6803 C.ar      1 UNK        -0.4470 
      2 C2         -7.6897  -11.5627   36.3671 C.ar      1 UNK         0.2270 
      3 C3         -7.6323   -6.3060   38.3373 C.ar      1 UNK        -0.1150 
      4 C4         -9.2969   -5.4058   39.8715 C.ar      1 UNK        -0.1150 
      5 C5         -8.5296  -13.8287   36.3524 C.ar      1 UNK         0.4730 
      6 C6         -7.2794  -11.7836   37.6963 C.ar      1 UNK        -0.4070 
      7 C7         -8.1882   -6.2439   39.6353 C.ar      1 UNK        -0.1150 
      8 C8         -8.1942   -5.5649   37.2706 C.ar      1 UNK         0.0850 
      9 C9         -9.8663   -4.6434   38.8239 C.ar      1 UNK         0.0850 
     10 C10        -9.3055   -4.7274   37.5301 C.ar      1 UNK         0.0850 
     11 C11        -7.5264  -13.0378   38.2879 C.ar      1 UNK         0.5158 
     12 C12        -6.5892  -10.7298   38.5037 C.ar      1 UNK         0.6150 
     13 C13        -6.5533  -12.3655   40.2787 C.ar      1 UNK         0.4815 
     14 C14        -7.6048   -7.0378   40.7687 C.2       1 UNK         0.6150 
     15 C15        -6.1782  -12.6350   41.7319 C.3       1 UNK        -0.1800 
     16 C16        -6.6902   -6.5498   35.6687 C.3       1 UNK         0.1100 
     17 C17       -11.5343   -3.7011   40.2772 C.3       1 UNK         0.1100 
     18 C18        -9.1136   -2.8696   36.1254 C.3       1 UNK         0.1100 
     19 C19        -5.4679  -10.1017   40.5848 C.3       1 UNK        -0.0500 
     20 C20        -6.3895   -9.1217   41.3402 C.3       1 UNK         0.0800 
     21 N21        -8.1383  -14.0389   37.6252 N.ar      1 UNK        -0.6780 
     22 N22        -7.1512  -13.3014   39.6088 N.2       1 UNK        -0.3898 
     23 N23        -6.2262  -11.0782   39.7672 N.pl3     1 UNK        -0.1925 
     24 N24        -6.9684   -8.1587   40.4184 N.am      1 UNK        -0.5000 
     25 O25        -6.3825   -9.6127   38.0178 O.2       1 UNK        -0.5000 
     26 O26        -7.7678   -6.7049   41.9404 O.2       1 UNK        -0.5000 
     27 O27        -7.7195   -5.6204   35.9755 O.3       1 UNK        -0.2850 
     28 O28       -10.9477   -3.8021   38.9887 O.3       1 UNK        -0.2850 
     29 O29        -9.8785   -3.9968   36.5197 O.3       1 UNK        -0.2850 
     30 H30        -8.6613  -12.4855   34.6602 H         1 UNK         0.1550 
     31 H31        -7.5200  -10.6127   35.8804 H         1 UNK         0.0650 
     32 H32        -6.7704   -6.9315   38.1671 H         1 UNK         0.1150 
     33 H33        -9.6966   -5.3647   40.8738 H         1 UNK         0.1150 
     34 H34        -9.0167  -14.6553   35.8563 H         1 UNK         0.0120 
     35 H35        -5.1059  -12.8067   41.8266 H         1 UNK         0.0600 
     36 H36        -6.6846  -13.5326   42.0893 H         1 UNK         0.0600 
     37 H37        -6.4798  -11.8214   42.3899 H         1 UNK         0.0600 
     38 H38        -6.4795   -6.5108   34.6001 H         1 UNK         0.0300 
     39 H39        -6.9882   -7.5719   35.9078 H         1 UNK         0.0300 
     40 H40        -5.7654   -6.3094   36.1948 H         1 UNK         0.0300 
     41 H41       -12.3716   -3.0047   40.2368 H         1 UNK         0.0300 
     42 H42       -10.8228   -3.3179   41.0099 H         1 UNK         0.0300 
     43 H43       -11.9215   -4.6629   40.6162 H         1 UNK         0.0300 
     44 H44        -9.6934   -2.2650   35.4283 H         1 UNK         0.0300 
     45 H45        -8.1897   -3.1585   35.6246 H         1 UNK         0.0300 
     46 H46        -8.8648   -2.2428   36.9831 H         1 UNK         0.0300 
     47 H47        -4.7987  -10.5916   41.2905 H         1 UNK         0.0600 
     48 H48        -4.7759   -9.5374   39.9551 H         1 UNK         0.0600 
     49 H49        -7.1852   -9.6398   41.8774 H         1 UNK         0.0600 
     50 H50        -5.8068   -8.5813   42.0890 H         1 UNK         0.0600 
     51 H51        -6.9047   -8.3673   39.4276 H         1 UNK         0.3000 
@<TRIPOS>BOND
     1    1    2 ar   
     2    1    5 ar   
     3    1   30 1    
     4    2    6 ar   
     5    2   31 1    
     6    3    7 ar   
     7    3    8 ar   
     8    3   32 1    
     9    4    7 ar   
    10    4    9 ar   
    11    4   33 1    
    12    5   21 ar   
    13    5   34 1    
    14    6   11 ar   
    15    6   12 ar   
    16    7   14 1    
    17    8   10 ar   
    18    8   27 1    
    19    9   10 ar   
    20    9   28 1    
    21   10   29 1    
    22   11   21 ar   
    23   11   22 ar   
    24   12   23 ar   
    25   12   25 2    
    26   13   15 1    
    27   13   22 ar   
    28   13   23 ar   
    29   14   24 am   BACKBONE|DICT|INTERRES
    30   14   26 2    
    31   15   35 1    
    32   15   36 1    
    33   15   37 1    
    34   16   27 1    
    35   16   38 1    
    36   16   39 1    
    37   16   40 1    
    38   17   28 1    
    39   17   41 1    
    40   17   42 1    
    41   17   43 1    
    42   18   29 1    
    43   18   44 1    
    44   18   45 1    
    45   18   46 1    
    46   19   20 1    
    47   19   23 1    
    48   19   47 1    
    49   19   48 1    
    50   20   24 1    
    51   20   49 1    
    52   20   50 1    
    53   24   51 1    
@<TRIPOS>SUBSTRUCTURE
     1 UNK         1 GROUP             0       ****    0 ROOT    
